*SPEF "IEEE 1481-1999"
*DESIGN "converter_f2i"
*DATE "Tue Jun  9 06:00:44 2020"
*VENDOR "SYNOPSYS INC"
*PROGRAM "Synopsys Design Compiler cmos"
*VERSION "F-2011.09-SP5-3"
*DESIGN_FLOW "SYNTHESIS"
*DIVIDER /
*DELIMITER :
*BUS_DELIMITER []
*T_UNIT 1.0 NS
*C_UNIT 1.0 PF
*R_UNIT 1.0 KOHM
*L_UNIT 1.0 HENRY

*PORTS

i_A\[31\] I *L 1.900e-03 *S 1.462e-01 1.662e-01 *D fd4qd1_hd 
i_A\[30\] I *L 1.900e-03 *S 1.462e-01 1.662e-01 *D fd4qd1_hd 
i_A\[29\] I *L 1.900e-03 *S 1.462e-01 1.662e-01 *D fd4qd1_hd 
i_A\[28\] I *L 1.900e-03 *S 1.462e-01 1.662e-01 *D fd4qd1_hd 
i_A\[27\] I *L 1.900e-03 *S 1.462e-01 1.662e-01 *D fd4qd1_hd 
i_A\[26\] I *L 1.900e-03 *S 1.462e-01 1.662e-01 *D fd4qd1_hd 
i_A\[25\] I *L 1.900e-03 *S 1.462e-01 1.662e-01 *D fd4qd1_hd 
i_A\[24\] I *L 1.900e-03 *S 1.462e-01 1.662e-01 *D fd4qd1_hd 
i_A\[23\] I *L 1.900e-03 *S 1.462e-01 1.662e-01 *D fd4qd1_hd 
i_A\[22\] I *L 1.900e-03 *S 1.462e-01 1.662e-01 *D fd4qd1_hd 
i_A\[21\] I *L 1.900e-03 *S 1.462e-01 1.662e-01 *D fd4qd1_hd 
i_A\[20\] I *L 1.900e-03 *S 1.462e-01 1.662e-01 *D fd4qd1_hd 
i_A\[19\] I *L 1.900e-03 *S 1.462e-01 1.662e-01 *D fd4qd1_hd 
i_A\[18\] I *L 1.900e-03 *S 1.462e-01 1.662e-01 *D fd4qd1_hd 
i_A\[17\] I *L 1.900e-03 *S 1.462e-01 1.662e-01 *D fd4qd1_hd 
i_A\[16\] I *L 1.900e-03 *S 1.462e-01 1.662e-01 *D fd4qd1_hd 
i_A\[15\] I *L 1.900e-03 *S 1.462e-01 1.662e-01 *D fd4qd1_hd 
i_A\[14\] I *L 1.900e-03 *S 1.462e-01 1.662e-01 *D fd4qd1_hd 
i_A\[13\] I *L 1.900e-03 *S 1.462e-01 1.662e-01 *D fd4qd1_hd 
i_A\[12\] I *L 1.900e-03 *S 1.462e-01 1.662e-01 *D fd4qd1_hd 
i_A\[11\] I *L 1.900e-03 *S 1.462e-01 1.662e-01 *D fd4qd1_hd 
i_A\[10\] I *L 1.900e-03 *S 1.462e-01 1.662e-01 *D fd4qd1_hd 
i_A\[9\] I *L 1.900e-03 *S 1.462e-01 1.662e-01 *D fd4qd1_hd 
i_A\[8\] I *L 1.900e-03 *S 1.462e-01 1.662e-01 *D fd4qd1_hd 
i_A\[7\] I *L 1.900e-03 *S 1.462e-01 1.662e-01 *D fd4qd1_hd 
i_A\[6\] I *L 1.900e-03 *S 1.462e-01 1.662e-01 *D fd4qd1_hd 
i_A\[5\] I *L 1.900e-03 *S 1.462e-01 1.662e-01 *D fd4qd1_hd 
i_A\[4\] I *L 1.900e-03 *S 1.462e-01 1.662e-01 *D fd4qd1_hd 
i_A\[3\] I *L 1.900e-03 *S 1.462e-01 1.662e-01 *D fd4qd1_hd 
i_A\[2\] I *L 1.900e-03 *S 1.462e-01 1.662e-01 *D fd4qd1_hd 
i_A\[1\] I *L 1.900e-03 *S 1.462e-01 1.662e-01 *D fd4qd1_hd 
i_A\[0\] I *L 1.900e-03 *S 1.462e-01 1.662e-01 *D fd4qd1_hd 
i_A_STB I *L 1.900e-03 *S 2.199e-01 2.326e-01 *D fd4qd1_hd 
o_A_ACK O *L 1.035e-02 *S 3.741e-01 2.569e-01 
o_Z\[31\] O *L 1.035e-02 *S 1.434e-01 1.217e-01 
o_Z\[30\] O *L 1.035e-02 *S 1.434e-01 1.217e-01 
o_Z\[29\] O *L 1.035e-02 *S 1.434e-01 1.217e-01 
o_Z\[28\] O *L 1.035e-02 *S 1.434e-01 1.217e-01 
o_Z\[27\] O *L 1.035e-02 *S 1.434e-01 1.217e-01 
o_Z\[26\] O *L 1.035e-02 *S 1.434e-01 1.217e-01 
o_Z\[25\] O *L 1.035e-02 *S 1.434e-01 1.217e-01 
o_Z\[24\] O *L 1.035e-02 *S 1.434e-01 1.217e-01 
o_Z\[23\] O *L 1.035e-02 *S 1.434e-01 1.217e-01 
o_Z\[22\] O *L 1.035e-02 *S 1.434e-01 1.217e-01 
o_Z\[21\] O *L 1.035e-02 *S 1.434e-01 1.217e-01 
o_Z\[20\] O *L 1.035e-02 *S 1.434e-01 1.217e-01 
o_Z\[19\] O *L 1.035e-02 *S 1.434e-01 1.217e-01 
o_Z\[18\] O *L 1.035e-02 *S 1.434e-01 1.217e-01 
o_Z\[17\] O *L 1.035e-02 *S 1.434e-01 1.217e-01 
o_Z\[16\] O *L 1.035e-02 *S 1.434e-01 1.217e-01 
o_Z\[15\] O *L 1.035e-02 *S 1.434e-01 1.217e-01 
o_Z\[14\] O *L 1.035e-02 *S 1.434e-01 1.217e-01 
o_Z\[13\] O *L 1.035e-02 *S 1.434e-01 1.217e-01 
o_Z\[12\] O *L 1.035e-02 *S 1.434e-01 1.217e-01 
o_Z\[11\] O *L 1.035e-02 *S 1.434e-01 1.217e-01 
o_Z\[10\] O *L 1.035e-02 *S 1.434e-01 1.217e-01 
o_Z\[9\] O *L 1.035e-02 *S 1.434e-01 1.217e-01 
o_Z\[8\] O *L 1.035e-02 *S 1.434e-01 1.217e-01 
o_Z\[7\] O *L 1.035e-02 *S 9.866e-02 8.984e-02 
o_Z\[6\] O *L 1.035e-02 *S 9.866e-02 8.984e-02 
o_Z\[5\] O *L 1.035e-02 *S 9.866e-02 8.984e-02 
o_Z\[4\] O *L 1.035e-02 *S 9.866e-02 8.984e-02 
o_Z\[3\] O *L 1.035e-02 *S 9.866e-02 8.984e-02 
o_Z\[2\] O *L 1.035e-02 *S 9.866e-02 8.984e-02 
o_Z\[1\] O *L 1.035e-02 *S 9.866e-02 8.984e-02 
o_Z\[0\] O *L 1.035e-02 *S 9.866e-02 8.984e-02 
o_Z_STB O *L 1.035e-02 *S 2.809e-01 2.006e-01 
i_Z_ACK I *L 1.900e-03 *S 2.281e-01 2.391e-01 *D fd4qd1_hd 
i_CLK I *L 0.000e+00 *S 0.000e+00 0.000e+00 
i_RST I *L 0.000e+00 *S 0.000e+00 0.000e+00 *D ivd8_hd 

*R_NET n144 4.680e-03
*DRIVER U97:Y
*CELL clknd2d1_hd
*C2_R1_C1 2.340e-03 7.370e-03 2.340e-03 
*LOADS
*RC clk_r_REG64_S3:D 3.449e-05
*END

*R_NET n145 4.680e-03
*DRIVER U98:Y
*CELL scg2d1_hd
*C2_R1_C1 2.340e-03 7.370e-03 2.340e-03 
*LOADS
*RC clk_r_REG2_S3:D 3.449e-05
*END

*R_NET n146 4.680e-03
*DRIVER U99:Y
*CELL scg2d1_hd
*C2_R1_C1 2.340e-03 7.370e-03 2.340e-03 
*LOADS
*RC clk_r_REG4_S3:D 3.449e-05
*END

*R_NET n147 4.680e-03
*DRIVER U100:Y
*CELL scg2d1_hd
*C2_R1_C1 2.340e-03 7.370e-03 2.340e-03 
*LOADS
*RC clk_r_REG6_S3:D 3.449e-05
*END

*R_NET n148 4.680e-03
*DRIVER U101:Y
*CELL scg2d1_hd
*C2_R1_C1 2.340e-03 7.370e-03 2.340e-03 
*LOADS
*RC clk_r_REG8_S3:D 3.449e-05
*END

*R_NET n149 4.680e-03
*DRIVER U102:Y
*CELL scg2d1_hd
*C2_R1_C1 2.340e-03 7.370e-03 2.340e-03 
*LOADS
*RC clk_r_REG10_S3:D 3.449e-05
*END

*R_NET n150 4.680e-03
*DRIVER U103:Y
*CELL scg2d1_hd
*C2_R1_C1 2.340e-03 7.370e-03 2.340e-03 
*LOADS
*RC clk_r_REG12_S3:D 3.449e-05
*END

*R_NET n151 4.680e-03
*DRIVER U104:Y
*CELL scg2d1_hd
*C2_R1_C1 2.340e-03 7.370e-03 2.340e-03 
*LOADS
*RC clk_r_REG14_S3:D 3.449e-05
*END

*R_NET n152 4.680e-03
*DRIVER U105:Y
*CELL scg2d1_hd
*C2_R1_C1 2.340e-03 7.370e-03 2.340e-03 
*LOADS
*RC clk_r_REG16_S3:D 3.449e-05
*END

*R_NET n153 4.680e-03
*DRIVER U128:Y
*CELL scg2d1_hd
*C2_R1_C1 2.340e-03 7.370e-03 2.340e-03 
*LOADS
*RC clk_r_REG62_S3:D 3.449e-05
*END

*R_NET n154 4.680e-03
*DRIVER U127:Y
*CELL scg2d1_hd
*C2_R1_C1 2.340e-03 7.370e-03 2.340e-03 
*LOADS
*RC clk_r_REG60_S3:D 3.449e-05
*END

*R_NET n155 4.680e-03
*DRIVER U126:Y
*CELL scg2d1_hd
*C2_R1_C1 2.340e-03 7.370e-03 2.340e-03 
*LOADS
*RC clk_r_REG58_S3:D 3.449e-05
*END

*R_NET n156 4.680e-03
*DRIVER U125:Y
*CELL scg2d1_hd
*C2_R1_C1 2.340e-03 7.370e-03 2.340e-03 
*LOADS
*RC clk_r_REG56_S3:D 3.449e-05
*END

*R_NET n157 4.680e-03
*DRIVER U124:Y
*CELL scg2d1_hd
*C2_R1_C1 2.340e-03 7.370e-03 2.340e-03 
*LOADS
*RC clk_r_REG54_S3:D 3.449e-05
*END

*R_NET n158 4.680e-03
*DRIVER U123:Y
*CELL scg2d1_hd
*C2_R1_C1 2.340e-03 7.370e-03 2.340e-03 
*LOADS
*RC clk_r_REG52_S3:D 3.449e-05
*END

*R_NET n159 4.680e-03
*DRIVER U122:Y
*CELL scg2d1_hd
*C2_R1_C1 2.340e-03 7.370e-03 2.340e-03 
*LOADS
*RC clk_r_REG50_S3:D 3.449e-05
*END

*R_NET n160 4.680e-03
*DRIVER U121:Y
*CELL scg2d1_hd
*C2_R1_C1 2.340e-03 7.370e-03 2.340e-03 
*LOADS
*RC clk_r_REG48_S3:D 3.449e-05
*END

*R_NET n161 4.680e-03
*DRIVER U120:Y
*CELL scg2d1_hd
*C2_R1_C1 2.340e-03 7.370e-03 2.340e-03 
*LOADS
*RC clk_r_REG46_S3:D 3.449e-05
*END

*R_NET n162 4.680e-03
*DRIVER U119:Y
*CELL scg2d1_hd
*C2_R1_C1 2.340e-03 7.370e-03 2.340e-03 
*LOADS
*RC clk_r_REG44_S3:D 3.449e-05
*END

*R_NET n163 4.680e-03
*DRIVER U118:Y
*CELL scg2d1_hd
*C2_R1_C1 2.340e-03 7.370e-03 2.340e-03 
*LOADS
*RC clk_r_REG42_S3:D 3.449e-05
*END

*R_NET n164 4.680e-03
*DRIVER U117:Y
*CELL scg2d1_hd
*C2_R1_C1 2.340e-03 7.370e-03 2.340e-03 
*LOADS
*RC clk_r_REG40_S3:D 3.449e-05
*END

*R_NET n210 4.680e-03
*DRIVER U116:Y
*CELL scg2d1_hd
*C2_R1_C1 2.340e-03 7.370e-03 2.340e-03 
*LOADS
*RC clk_r_REG38_S3:D 3.449e-05
*END

*R_NET n211 4.680e-03
*DRIVER U115:Y
*CELL scg2d1_hd
*C2_R1_C1 2.340e-03 7.370e-03 2.340e-03 
*LOADS
*RC clk_r_REG36_S3:D 3.449e-05
*END

*R_NET n212 4.680e-03
*DRIVER U114:Y
*CELL scg2d1_hd
*C2_R1_C1 2.340e-03 7.370e-03 2.340e-03 
*LOADS
*RC clk_r_REG34_S3:D 3.449e-05
*END

*R_NET n213 4.680e-03
*DRIVER U113:Y
*CELL scg2d1_hd
*C2_R1_C1 2.340e-03 7.370e-03 2.340e-03 
*LOADS
*RC clk_r_REG32_S3:D 3.449e-05
*END

*R_NET n214 4.680e-03
*DRIVER U112:Y
*CELL scg2d1_hd
*C2_R1_C1 2.340e-03 7.370e-03 2.340e-03 
*LOADS
*RC clk_r_REG30_S3:D 3.449e-05
*END

*R_NET n215 4.680e-03
*DRIVER U111:Y
*CELL scg2d1_hd
*C2_R1_C1 2.340e-03 7.370e-03 2.340e-03 
*LOADS
*RC clk_r_REG28_S3:D 3.449e-05
*END

*R_NET n216 4.680e-03
*DRIVER U110:Y
*CELL scg2d1_hd
*C2_R1_C1 2.340e-03 7.370e-03 2.340e-03 
*LOADS
*RC clk_r_REG26_S3:D 3.449e-05
*END

*R_NET n217 4.680e-03
*DRIVER U109:Y
*CELL scg2d1_hd
*C2_R1_C1 2.340e-03 7.370e-03 2.340e-03 
*LOADS
*RC clk_r_REG24_S3:D 3.449e-05
*END

*R_NET n218 4.680e-03
*DRIVER U108:Y
*CELL scg2d1_hd
*C2_R1_C1 2.340e-03 7.370e-03 2.340e-03 
*LOADS
*RC clk_r_REG22_S3:D 3.449e-05
*END

*R_NET n219 4.680e-03
*DRIVER U107:Y
*CELL scg2d1_hd
*C2_R1_C1 2.340e-03 7.370e-03 2.340e-03 
*LOADS
*RC clk_r_REG20_S3:D 3.449e-05
*END

*R_NET n220 4.680e-03
*DRIVER U106:Y
*CELL scg2d1_hd
*C2_R1_C1 2.340e-03 7.370e-03 2.340e-03 
*LOADS
*RC clk_r_REG18_S3:D 3.449e-05
*END

*R_NET i_A_STB 2.340e-02
*DRIVER i_A_STB
*CELL fd4qd1_hd
*C2_R1_C1 1.170e-02 1.469e-02 1.170e-02 
*LOADS
*RC U1:A 3.437e-04
*RC U321:B 3.437e-04
*END

*R_NET i_Z_ACK 2.442e-02
*DRIVER i_Z_ACK
*CELL fd4qd1_hd
*C2_R1_C1 1.221e-02 1.469e-02 1.221e-02 
*LOADS
*RC U330:C 3.587e-04
*RC U320:B 3.587e-04
*END

*R_NET i_CLK 1.020e+03
*DRIVER i_CLK
*CELL NULL
*C2_R1_C1 5.101e+02 0.000e+00 5.101e+02 
*LOADS
*RC DP_OP_15_125_2165/clk_gate_clk_r_REG66_S1/latch:CK 0.000e+00
*RC clk_gate_clk_r_REG70_S4/latch:CK 0.000e+00
*RC clk_gate_clk_r_REG0_S1/latch:CK 0.000e+00
*RC clk_gate_clk_r_REG76_S4/latch:CK 0.000e+00
*RC clk_gate_clk_r_REG3_S4/latch:CK 0.000e+00
*RC clk_gate_clk_r_REG64_S3/latch:CK 0.000e+00
*RC clk_r_REG142_S1:CK 0.000e+00
*RC clk_r_REG141_S1:CK 0.000e+00
*RC clk_r_REG100_S4:CK 0.000e+00
*RC clk_r_REG107_S4:CK 0.000e+00
*RC clk_r_REG104_S4:CK 0.000e+00
*RC clk_r_REG103_S4:CK 0.000e+00
*RC clk_r_REG101_S4:CK 0.000e+00
*RC clk_r_REG102_S4:CK 0.000e+00
*RC clk_r_REG67_S2:CK 0.000e+00
*RC clk_r_REG110_S4:CK 0.000e+00
*RC clk_r_REG109_S4:CK 0.000e+00
*RC clk_r_REG68_S3:CK 0.000e+00
*END

*R_NET o_A_ACK0 4.500e-03
*DRIVER U321:Y
*CELL ao21d1_hd
*C2_R1_C1 2.250e-03 7.370e-03 2.250e-03 
*LOADS
*RC clk_r_REG141_S1:D 3.316e-05
*END

*R_NET o_Z_STB0 4.500e-03
*DRIVER U320:Y
*CELL ao21d1_hd
*C2_R1_C1 2.250e-03 7.370e-03 2.250e-03 
*LOADS
*RC clk_r_REG142_S1:D 3.316e-05
*END

*R_NET N22 4.686e-02
*DRIVER U358:Y
*CELL nr2d1_hd
*C2_R1_C1 2.343e-02 2.090e-02 2.343e-02 
*LOADS
*RC clk_r_REG1_S2:E 9.796e-04
*RC U329:B 9.796e-04
*RC U326:C 9.796e-04
*RC U165:A 9.796e-04
*RC U154:C 9.796e-04
*RC U151:C 9.796e-04
*RC U148:C 9.796e-04
*RC U145:C 9.796e-04
*RC U129:C 9.796e-04
*END

*R_NET N31 1.582e-02
*DRIVER U5:Y
*CELL nr2d1_hd
*C2_R1_C1 7.910e-03 9.460e-03 7.910e-03 
*LOADS
*RC U330:A 1.497e-04
*RC U319:B 1.497e-04
*RC clk_gate_clk_r_REG3_S4/latch:EN 1.497e-04
*END

*R_NET i_A\[31\] 1.453e-02
*DRIVER i_A\[31\]
*CELL fd4qd1_hd
*C2_R1_C1 7.265e-03 1.275e-02 7.265e-03 
*LOADS
*RC clk_r_REG0_S1:D 1.853e-04
*END

*R_NET N65 4.780e-03
*DRIVER sub_x_3/U68:Y
*CELL nid1_hd
*C2_R1_C1 2.390e-03 7.370e-03 2.390e-03 
*LOADS
*RC U106:B 3.523e-05
*END

*R_NET N66 4.780e-03
*DRIVER sub_x_3/U31:S
*CELL had1_hd
*C2_R1_C1 2.390e-03 7.370e-03 2.390e-03 
*LOADS
*RC U107:B 3.523e-05
*END

*R_NET N67 4.780e-03
*DRIVER sub_x_3/U30:S
*CELL had1_hd
*C2_R1_C1 2.390e-03 7.370e-03 2.390e-03 
*LOADS
*RC U108:B 3.523e-05
*END

*R_NET N68 4.780e-03
*DRIVER sub_x_3/U29:S
*CELL had1_hd
*C2_R1_C1 2.390e-03 7.370e-03 2.390e-03 
*LOADS
*RC U109:B 3.523e-05
*END

*R_NET N69 4.780e-03
*DRIVER sub_x_3/U28:S
*CELL had1_hd
*C2_R1_C1 2.390e-03 7.370e-03 2.390e-03 
*LOADS
*RC U110:B 3.523e-05
*END

*R_NET N70 4.780e-03
*DRIVER sub_x_3/U27:S
*CELL had1_hd
*C2_R1_C1 2.390e-03 7.370e-03 2.390e-03 
*LOADS
*RC U111:B 3.523e-05
*END

*R_NET N71 4.780e-03
*DRIVER sub_x_3/U26:S
*CELL had1_hd
*C2_R1_C1 2.390e-03 7.370e-03 2.390e-03 
*LOADS
*RC U112:B 3.523e-05
*END

*R_NET N72 4.780e-03
*DRIVER sub_x_3/U25:S
*CELL had1_hd
*C2_R1_C1 2.390e-03 7.370e-03 2.390e-03 
*LOADS
*RC U113:B 3.523e-05
*END

*R_NET N73 4.780e-03
*DRIVER sub_x_3/U24:S
*CELL had1_hd
*C2_R1_C1 2.390e-03 7.370e-03 2.390e-03 
*LOADS
*RC U114:B 3.523e-05
*END

*R_NET N74 4.780e-03
*DRIVER sub_x_3/U23:S
*CELL had1_hd
*C2_R1_C1 2.390e-03 7.370e-03 2.390e-03 
*LOADS
*RC U115:B 3.523e-05
*END

*R_NET N75 4.780e-03
*DRIVER sub_x_3/U22:S
*CELL had1_hd
*C2_R1_C1 2.390e-03 7.370e-03 2.390e-03 
*LOADS
*RC U116:B 3.523e-05
*END

*R_NET N76 4.780e-03
*DRIVER sub_x_3/U21:S
*CELL had1_hd
*C2_R1_C1 2.390e-03 7.370e-03 2.390e-03 
*LOADS
*RC U117:B 3.523e-05
*END

*R_NET N77 4.780e-03
*DRIVER sub_x_3/U20:S
*CELL had1_hd
*C2_R1_C1 2.390e-03 7.370e-03 2.390e-03 
*LOADS
*RC U118:B 3.523e-05
*END

*R_NET N78 4.780e-03
*DRIVER sub_x_3/U19:S
*CELL had1_hd
*C2_R1_C1 2.390e-03 7.370e-03 2.390e-03 
*LOADS
*RC U119:B 3.523e-05
*END

*R_NET N79 4.780e-03
*DRIVER sub_x_3/U18:S
*CELL had1_hd
*C2_R1_C1 2.390e-03 7.370e-03 2.390e-03 
*LOADS
*RC U120:B 3.523e-05
*END

*R_NET N80 4.780e-03
*DRIVER sub_x_3/U17:S
*CELL had1_hd
*C2_R1_C1 2.390e-03 7.370e-03 2.390e-03 
*LOADS
*RC U121:B 3.523e-05
*END

*R_NET N81 4.780e-03
*DRIVER sub_x_3/U16:S
*CELL had1_hd
*C2_R1_C1 2.390e-03 7.370e-03 2.390e-03 
*LOADS
*RC U122:B 3.523e-05
*END

*R_NET N82 4.780e-03
*DRIVER sub_x_3/U15:S
*CELL had1_hd
*C2_R1_C1 2.390e-03 7.370e-03 2.390e-03 
*LOADS
*RC U123:B 3.523e-05
*END

*R_NET N83 4.780e-03
*DRIVER sub_x_3/U14:S
*CELL had1_hd
*C2_R1_C1 2.390e-03 7.370e-03 2.390e-03 
*LOADS
*RC U124:B 3.523e-05
*END

*R_NET N84 4.780e-03
*DRIVER sub_x_3/U13:S
*CELL had1_hd
*C2_R1_C1 2.390e-03 7.370e-03 2.390e-03 
*LOADS
*RC U125:B 3.523e-05
*END

*R_NET N85 4.780e-03
*DRIVER sub_x_3/U12:S
*CELL had1_hd
*C2_R1_C1 2.390e-03 7.370e-03 2.390e-03 
*LOADS
*RC U126:B 3.523e-05
*END

*R_NET N86 4.780e-03
*DRIVER sub_x_3/U11:S
*CELL had1_hd
*C2_R1_C1 2.390e-03 7.370e-03 2.390e-03 
*LOADS
*RC U127:B 3.523e-05
*END

*R_NET N87 4.780e-03
*DRIVER sub_x_3/U10:S
*CELL had1_hd
*C2_R1_C1 2.390e-03 7.370e-03 2.390e-03 
*LOADS
*RC U128:B 3.523e-05
*END

*R_NET N88 4.780e-03
*DRIVER sub_x_3/U9:S
*CELL had1_hd
*C2_R1_C1 2.390e-03 7.370e-03 2.390e-03 
*LOADS
*RC U105:B 3.523e-05
*END

*R_NET N89 4.780e-03
*DRIVER sub_x_3/U8:S
*CELL had1_hd
*C2_R1_C1 2.390e-03 7.370e-03 2.390e-03 
*LOADS
*RC U104:B 3.523e-05
*END

*R_NET N90 4.780e-03
*DRIVER sub_x_3/U7:S
*CELL had1_hd
*C2_R1_C1 2.390e-03 7.370e-03 2.390e-03 
*LOADS
*RC U103:B 3.523e-05
*END

*R_NET N91 4.780e-03
*DRIVER sub_x_3/U6:S
*CELL had1_hd
*C2_R1_C1 2.390e-03 7.370e-03 2.390e-03 
*LOADS
*RC U102:B 3.523e-05
*END

*R_NET N92 4.780e-03
*DRIVER sub_x_3/U5:S
*CELL had1_hd
*C2_R1_C1 2.390e-03 7.370e-03 2.390e-03 
*LOADS
*RC U101:B 3.523e-05
*END

*R_NET N93 4.780e-03
*DRIVER sub_x_3/U4:S
*CELL had1_hd
*C2_R1_C1 2.390e-03 7.370e-03 2.390e-03 
*LOADS
*RC U100:B 3.523e-05
*END

*R_NET N94 4.780e-03
*DRIVER sub_x_3/U3:S
*CELL had1_hd
*C2_R1_C1 2.390e-03 7.370e-03 2.390e-03 
*LOADS
*RC U99:B 3.523e-05
*END

*R_NET N95 4.780e-03
*DRIVER sub_x_3/U2:S
*CELL had1_hd
*C2_R1_C1 2.390e-03 7.370e-03 2.390e-03 
*LOADS
*RC U98:B 3.523e-05
*END

*R_NET N96 5.800e-03
*DRIVER sub_x_3/U100:Y
*CELL xn2d1_hd
*C2_R1_C1 2.900e-03 7.370e-03 2.900e-03 
*LOADS
*RC U331:B 4.275e-05
*END

*R_NET N141 1.779e-02
*DRIVER U1:Y
*CELL ad3d1_hd
*C2_R1_C1 8.895e-03 9.460e-03 8.895e-03 
*LOADS
*RC DP_OP_15_125_2165/clk_gate_clk_r_REG66_S1/latch:EN 1.683e-04
*RC clk_gate_clk_r_REG0_S1/latch:EN 1.683e-04
*RC U329:C 1.683e-04
*END

*R_NET N173 5.480e-02
*DRIVER U4:Y
*CELL ao21d2_hd
*C2_R1_C1 2.740e-02 2.066e-02 2.740e-02 
*LOADS
*RC clk_r_REG100_S4:E 1.132e-03
*RC clk_r_REG107_S4:E 1.132e-03
*RC clk_r_REG104_S4:E 1.132e-03
*RC clk_r_REG103_S4:E 1.132e-03
*RC clk_r_REG101_S4:E 1.132e-03
*RC clk_r_REG102_S4:E 1.132e-03
*RC clk_r_REG67_S2:E 1.132e-03
*RC clk_gate_clk_r_REG76_S4/latch:EN 1.132e-03
*END

*R_NET N183 6.030e-03
*DRIVER U2:Y
*CELL oa21d1_hd
*C2_R1_C1 3.015e-03 7.370e-03 3.015e-03 
*LOADS
*RC clk_gate_clk_r_REG64_S3/latch:EN 4.444e-05
*END

*R_NET N217 1.940e-02
*DRIVER U328:Y
*CELL oa21d1_hd
*C2_R1_C1 9.700e-03 9.460e-03 9.700e-03 
*LOADS
*RC clk_r_REG110_S4:E 1.835e-04
*RC clk_r_REG109_S4:E 1.835e-04
*RC clk_r_REG68_S3:E 1.835e-04
*END

*R_NET N222 6.580e-03
*DRIVER U161:Y
*CELL clknd2d1_hd
*C2_R1_C1 3.290e-03 7.370e-03 3.290e-03 
*LOADS
*RC clk_r_REG141_S1:E 4.849e-05
*END

*R_NET N224 6.580e-03
*DRIVER U319:Y
*CELL scg14d1_hd
*C2_R1_C1 3.290e-03 7.370e-03 3.290e-03 
*LOADS
*RC clk_r_REG142_S1:E 4.849e-05
*END

*R_NET n6 1.739e-02
*DRIVER U95:Y
*CELL clknd2d1_hd
*C2_R1_C1 8.695e-03 9.460e-03 8.695e-03 
*LOADS
*RC U326:B 1.645e-04
*RC U324:B 1.645e-04
*RC U323:D 1.645e-04
*END

*R_NET C1_DATA1_8 4.670e-03
*DRIVER DP_OP_15_125_2165/U13:Y
*CELL nr2d1_hd
*C2_R1_C1 2.335e-03 7.370e-03 2.335e-03 
*LOADS
*RC U137:D 3.442e-05
*END

*R_NET C1_DATA1_7 4.670e-03
*DRIVER DP_OP_15_125_2165/U14:Y
*CELL ao22d1_hd
*C2_R1_C1 2.335e-03 7.370e-03 2.335e-03 
*LOADS
*RC U136:D 3.442e-05
*END

*R_NET C1_DATA1_6 4.670e-03
*DRIVER DP_OP_15_125_2165/U4:S
*CELL had1_hd
*C2_R1_C1 2.335e-03 7.370e-03 2.335e-03 
*LOADS
*RC U135:D 3.442e-05
*END

*R_NET C1_DATA1_5 4.670e-03
*DRIVER DP_OP_15_125_2165/U5:S
*CELL had1_hd
*C2_R1_C1 2.335e-03 7.370e-03 2.335e-03 
*LOADS
*RC U134:D 3.442e-05
*END

*R_NET C1_DATA1_4 4.670e-03
*DRIVER DP_OP_15_125_2165/U6:S
*CELL had1_hd
*C2_R1_C1 2.335e-03 7.370e-03 2.335e-03 
*LOADS
*RC U133:D 3.442e-05
*END

*R_NET C1_DATA1_3 4.670e-03
*DRIVER DP_OP_15_125_2165/U7:S
*CELL had1_hd
*C2_R1_C1 2.335e-03 7.370e-03 2.335e-03 
*LOADS
*RC U132:D 3.442e-05
*END

*R_NET C1_DATA1_2 4.670e-03
*DRIVER DP_OP_15_125_2165/U8:S
*CELL had1_hd
*C2_R1_C1 2.335e-03 7.370e-03 2.335e-03 
*LOADS
*RC U131:D 3.442e-05
*END

*R_NET C1_DATA1_1 4.670e-03
*DRIVER DP_OP_15_125_2165/U9:S
*CELL had1_hd
*C2_R1_C1 2.335e-03 7.370e-03 2.335e-03 
*LOADS
*RC U130:D 3.442e-05
*END

*R_NET C1_DATA1_0 4.670e-03
*DRIVER DP_OP_15_125_2165/U17:Y
*CELL ivd1_hd
*C2_R1_C1 2.335e-03 7.370e-03 2.335e-03 
*LOADS
*RC U129:D 3.442e-05
*END

*R_NET C1_DATA2_8 4.780e-03
*DRIVER DP_OP_16_126_2421/U12:Y
*CELL xo2d1_hd
*C2_R1_C1 2.390e-03 7.370e-03 2.390e-03 
*LOADS
*RC U137:B 3.523e-05
*END

*R_NET C1_DATA2_7 4.780e-03
*DRIVER DP_OP_16_126_2421/U2:S
*CELL had1_hd
*C2_R1_C1 2.390e-03 7.370e-03 2.390e-03 
*LOADS
*RC U136:B 3.523e-05
*END

*R_NET C1_DATA2_6 4.780e-03
*DRIVER DP_OP_16_126_2421/U3:S
*CELL had1_hd
*C2_R1_C1 2.390e-03 7.370e-03 2.390e-03 
*LOADS
*RC U135:B 3.523e-05
*END

*R_NET C1_DATA2_5 4.780e-03
*DRIVER DP_OP_16_126_2421/U4:S
*CELL had1_hd
*C2_R1_C1 2.390e-03 7.370e-03 2.390e-03 
*LOADS
*RC U134:B 3.523e-05
*END

*R_NET C1_DATA2_4 4.780e-03
*DRIVER DP_OP_16_126_2421/U5:S
*CELL had1_hd
*C2_R1_C1 2.390e-03 7.370e-03 2.390e-03 
*LOADS
*RC U133:B 3.523e-05
*END

*R_NET C1_DATA2_3 4.780e-03
*DRIVER DP_OP_16_126_2421/U6:S
*CELL had1_hd
*C2_R1_C1 2.390e-03 7.370e-03 2.390e-03 
*LOADS
*RC U132:B 3.523e-05
*END

*R_NET C1_DATA2_2 4.780e-03
*DRIVER DP_OP_16_126_2421/U7:S
*CELL had1_hd
*C2_R1_C1 2.390e-03 7.370e-03 2.390e-03 
*LOADS
*RC U131:B 3.523e-05
*END

*R_NET C1_DATA2_1 4.780e-03
*DRIVER DP_OP_16_126_2421/U8:S
*CELL had1_hd
*C2_R1_C1 2.390e-03 7.370e-03 2.390e-03 
*LOADS
*RC U130:B 3.523e-05
*END

*R_NET C1_DATA2_0 4.780e-03
*DRIVER DP_OP_16_126_2421/U13:Y
*CELL ivd1_hd
*C2_R1_C1 2.390e-03 7.370e-03 2.390e-03 
*LOADS
*RC U129:B 3.523e-05
*END

*R_NET n17 4.039e-02
*DRIVER U162:Y
*CELL or2d1_hd
*C2_R1_C1 2.019e-02 1.715e-02 2.019e-02 
*LOADS
*RC U365:B 6.927e-04
*RC U364:B 6.927e-04
*RC U363:B 6.927e-04
*RC U362:B 6.927e-04
*RC U361:B 6.927e-04
*RC U323:B 6.927e-04
*RC U164:A 6.927e-04
*END

*R_NET n18 1.324e-01
*DRIVER U164:Y
*CELL ivd2_hd
*C2_R1_C1 6.621e-02 3.960e-02 6.621e-02 
*LOADS
*RC U3:A 5.243e-03
*RC U359:A 5.243e-03
*RC U172:A 5.243e-03
*RC U170:A 5.243e-03
*RC U159:A 5.243e-03
*RC U158:A 5.243e-03
*RC U156:A 5.243e-03
*RC U155:A 5.243e-03
*RC U154:A 5.243e-03
*RC U153:A 5.243e-03
*RC U152:A 5.243e-03
*RC U151:A 5.243e-03
*RC U150:A 5.243e-03
*RC U149:A 5.243e-03
*RC U148:A 5.243e-03
*RC U147:A 5.243e-03
*RC U146:A 5.243e-03
*RC U145:A 5.243e-03
*RC U144:A 5.243e-03
*RC U143:A 5.243e-03
*RC U142:A 5.243e-03
*RC U141:A 5.243e-03
*RC U140:A 5.243e-03
*RC U139:A 5.243e-03
*RC U138:A 5.243e-03
*RC U137:A 5.243e-03
*RC U136:A 5.243e-03
*RC U135:A 5.243e-03
*RC U134:A 5.243e-03
*RC U133:A 5.243e-03
*RC U132:A 5.243e-03
*RC U131:A 5.243e-03
*RC U130:A 5.243e-03
*RC U129:A 5.243e-03
*RC U93:A 5.243e-03
*END

*R_NET n19 9.660e-03
*DRIVER U165:Y
*CELL ivd1_hd
*C2_R1_C1 4.830e-03 9.100e-03 4.830e-03 
*LOADS
*RC U167:A 8.791e-05
*RC U166:A 8.791e-05
*END

*R_NET n20 5.840e-02
*DRIVER U166:Y
*CELL ivd1_hd
*C2_R1_C1 2.920e-02 2.212e-02 2.920e-02 
*LOADS
*RC clk_r_REG108_S4:D 1.292e-03
*RC U159:C 1.292e-03
*RC U156:C 1.292e-03
*RC U153:C 1.292e-03
*RC U150:C 1.292e-03
*RC U147:C 1.292e-03
*RC U144:C 1.292e-03
*RC U142:C 1.292e-03
*RC U141:C 1.292e-03
*RC U138:C 1.292e-03
*RC U137:C 1.292e-03
*RC U135:C 1.292e-03
*RC U134:C 1.292e-03
*RC U131:C 1.292e-03
*END

*R_NET n21 5.531e-02
*DRIVER U167:Y
*CELL ivd1_hd
*C2_R1_C1 2.765e-02 2.188e-02 2.765e-02 
*LOADS
*RC U357:A 1.210e-03
*RC U158:C 1.210e-03
*RC U155:C 1.210e-03
*RC U152:C 1.210e-03
*RC U149:C 1.210e-03
*RC U146:C 1.210e-03
*RC U143:C 1.210e-03
*RC U140:C 1.210e-03
*RC U139:C 1.210e-03
*RC U136:C 1.210e-03
*RC U133:C 1.210e-03
*RC U132:C 1.210e-03
*RC U130:C 1.210e-03
*END

*R_NET n167 9.980e-03
*DRIVER U96:Y
*CELL clknd2d1_hd
*C2_R1_C1 4.990e-03 9.100e-03 4.990e-03 
*LOADS
*RC U324:C 9.082e-05
*RC U161:B 9.082e-05
*END

*R_NET n168 1.653e-02
*DRIVER U334:Y
*CELL nr2d1_hd
*C2_R1_C1 8.265e-03 9.460e-03 8.265e-03 
*LOADS
*RC U2:A 1.564e-04
*RC U327:A 1.564e-04
*RC U323:C 1.564e-04
*END

*R_NET n169 1.090e-02
*DRIVER U327:Y
*CELL ivd1_hd
*C2_R1_C1 5.450e-03 9.100e-03 5.450e-03 
*LOADS
*RC U326:A 9.919e-05
*RC U324:A 9.919e-05
*END

*R_NET n170 9.060e-03
*DRIVER U369:Y
*CELL nr2d1_hd
*C2_R1_C1 4.530e-03 9.100e-03 4.530e-03 
*LOADS
*RC U1:C 8.245e-05
*RC U96:A 8.245e-05
*END

*R_NET n171 1.674e-02
*DRIVER U332:Y
*CELL ivd1_hd
*C2_R1_C1 8.370e-03 9.460e-03 8.370e-03 
*LOADS
*RC U331:C 1.584e-04
*RC U329:A 1.584e-04
*RC U95:A 1.584e-04
*END

*R_NET n172 5.920e-03
*DRIVER U329:Y
*CELL nr4d1_hd
*C2_R1_C1 2.960e-03 7.370e-03 2.960e-03 
*LOADS
*RC U328:B 4.363e-05
*END

*R_NET n173 6.180e-03
*DRIVER U160:Y
*CELL clknd2d1_hd
*C2_R1_C1 3.090e-03 7.370e-03 3.090e-03 
*LOADS
*RC U329:D 4.555e-05
*END

*R_NET n174 5.200e-03
*DRIVER U330:Y
*CELL nd3d1_hd
*C2_R1_C1 2.600e-03 7.370e-03 2.600e-03 
*LOADS
*RC U160:A 3.832e-05
*END

*R_NET n175 9.980e-03
*DRIVER U172:Y
*CELL clknd2d1_hd
*C2_R1_C1 4.990e-03 9.100e-03 4.990e-03 
*LOADS
*RC U2:C 9.082e-05
*RC U160:B 9.082e-05
*END

*R_NET n176 1.600e-02
*DRIVER U368:Y
*CELL ivd1_hd
*C2_R1_C1 8.000e-03 9.460e-03 8.000e-03 
*LOADS
*RC U5:A 1.514e-04
*RC U333:B 1.514e-04
*RC U94:B 1.514e-04
*END

*R_NET n177 1.050e-02
*DRIVER U174:Y
*CELL clknd2d1_hd
*C2_R1_C1 5.250e-03 9.100e-03 5.250e-03 
*LOADS
*RC U5:B 9.555e-05
*RC U369:B 9.555e-05
*END

*R_NET n178 5.200e-03
*DRIVER U331:Y
*CELL ao22d1_hd
*C2_R1_C1 2.600e-03 7.370e-03 2.600e-03 
*LOADS
*RC U97:A 3.832e-05
*END

*R_NET n179 9.960e-03
*DRIVER U93:Y
*CELL clknd2d1_hd
*C2_R1_C1 4.980e-03 9.100e-03 4.980e-03 
*LOADS
*RC U357:C 9.064e-05
*RC U97:B 9.064e-05
*END

*R_NET n180 1.213e-01
*DRIVER U163:Y
*CELL ad2bd2_hd
*C2_R1_C1 6.063e-02 3.642e-02 6.063e-02 
*LOADS
*RC U331:A 4.416e-03
*RC U128:A 4.416e-03
*RC U127:A 4.416e-03
*RC U126:A 4.416e-03
*RC U125:A 4.416e-03
*RC U124:A 4.416e-03
*RC U123:A 4.416e-03
*RC U122:A 4.416e-03
*RC U121:A 4.416e-03
*RC U120:A 4.416e-03
*RC U119:A 4.416e-03
*RC U118:A 4.416e-03
*RC U117:A 4.416e-03
*RC U116:A 4.416e-03
*RC U115:A 4.416e-03
*RC U114:A 4.416e-03
*RC U113:A 4.416e-03
*RC U112:A 4.416e-03
*RC U111:A 4.416e-03
*RC U110:A 4.416e-03
*RC U109:A 4.416e-03
*RC U108:A 4.416e-03
*RC U107:A 4.416e-03
*RC U106:A 4.416e-03
*RC U105:A 4.416e-03
*RC U104:A 4.416e-03
*RC U103:A 4.416e-03
*RC U102:A 4.416e-03
*RC U101:A 4.416e-03
*RC U100:A 4.416e-03
*RC U99:A 4.416e-03
*RC U98:A 4.416e-03
*END

*R_NET n181 1.076e-02
*DRIVER U335:Y
*CELL ao21d1_hd
*C2_R1_C1 5.380e-03 9.100e-03 5.380e-03 
*LOADS
*RC U334:B 9.792e-05
*RC U331:D 9.792e-05
*END

*R_NET n182 1.036e-02
*DRIVER U333:Y
*CELL nd3d1_hd
*C2_R1_C1 5.180e-03 9.100e-03 5.180e-03 
*LOADS
*RC U2:B 9.428e-05
*RC U332:A 9.428e-05
*END

*R_NET n183 1.152e-01
*DRIVER U169:Y
*CELL nr2d4_hd
*C2_R1_C1 5.762e-02 3.556e-02 5.762e-02 
*LOADS
*RC U128:C 4.098e-03
*RC U127:C 4.098e-03
*RC U126:C 4.098e-03
*RC U125:C 4.098e-03
*RC U124:C 4.098e-03
*RC U123:C 4.098e-03
*RC U122:C 4.098e-03
*RC U121:C 4.098e-03
*RC U120:C 4.098e-03
*RC U119:C 4.098e-03
*RC U118:C 4.098e-03
*RC U117:C 4.098e-03
*RC U116:C 4.098e-03
*RC U115:C 4.098e-03
*RC U114:C 4.098e-03
*RC U113:C 4.098e-03
*RC U112:C 4.098e-03
*RC U111:C 4.098e-03
*RC U110:C 4.098e-03
*RC U109:C 4.098e-03
*RC U108:C 4.098e-03
*RC U107:C 4.098e-03
*RC U106:C 4.098e-03
*RC U105:C 4.098e-03
*RC U104:C 4.098e-03
*RC U103:C 4.098e-03
*RC U102:C 4.098e-03
*RC U101:C 4.098e-03
*RC U100:C 4.098e-03
*RC U99:C 4.098e-03
*RC U98:D 4.098e-03
*END

*R_NET n184 1.645e-02
*DRIVER U170:Y
*CELL clknd2d1_hd
*C2_R1_C1 8.225e-03 9.100e-03 8.225e-03 
*LOADS
*RC U169:B 1.497e-04
*RC U163:AN 1.497e-04
*END

*R_NET n185 1.004e-02
*DRIVER U349:Y
*CELL ivd1_hd
*C2_R1_C1 5.020e-03 9.100e-03 5.020e-03 
*LOADS
*RC U348:B 9.136e-05
*RC U170:B 9.136e-05
*END

*R_NET n186 1.320e-02
*DRIVER U340:Y
*CELL oa21d1_hd
*C2_R1_C1 6.600e-03 9.100e-03 6.600e-03 
*LOADS
*RC U4:B 1.201e-04
*RC U172:B 1.201e-04
*END

*R_NET n187 1.001e-02
*DRIVER U370:Y
*CELL ivd1_hd
*C2_R1_C1 5.005e-03 9.100e-03 5.005e-03 
*LOADS
*RC U333:C 9.109e-05
*RC U174:B 9.109e-05
*END

*R_NET n188 5.520e-03
*DRIVER U336:Y
*CELL nr4d1_hd
*C2_R1_C1 2.760e-03 7.370e-03 2.760e-03 
*LOADS
*RC U334:A 4.068e-05
*END

*R_NET n189 1.027e-02
*DRIVER U355:Y
*CELL nr2d1_hd
*C2_R1_C1 5.135e-03 9.100e-03 5.135e-03 
*LOADS
*RC U354:A 9.346e-05
*RC U335:A 9.346e-05
*END

*R_NET n190 1.117e-02
*DRIVER U339:Y
*CELL ivd1_hd
*C2_R1_C1 5.585e-03 9.100e-03 5.585e-03 
*LOADS
*RC U336:B 1.016e-04
*RC U335:B 1.016e-04
*END

*R_NET n191 1.119e-02
*DRIVER U354:Y
*CELL ivd1_hd
*C2_R1_C1 5.595e-03 9.100e-03 5.595e-03 
*LOADS
*RC U353:D 1.018e-04
*RC U336:C 1.018e-04
*END

*R_NET n192 6.180e-03
*DRIVER U337:Y
*CELL or4d1_hd
*C2_R1_C1 3.090e-03 7.370e-03 3.090e-03 
*LOADS
*RC U336:D 4.555e-05
*END

*R_NET n193 5.320e-03
*DRIVER U338:Y
*CELL ivd1_hd
*C2_R1_C1 2.660e-03 7.370e-03 2.660e-03 
*LOADS
*RC U337:D 3.921e-05
*END

*R_NET n194 2.450e-02
*DRIVER U94:Y
*CELL clknd2d1_hd
*C2_R1_C1 1.225e-02 1.094e-02 1.225e-02 
*LOADS
*RC U4:C 2.680e-04
*RC U8:C 2.680e-04
*RC U358:B 2.680e-04
*RC U162:B 2.680e-04
*END

*R_NET n195 1.066e-02
*DRIVER U353:Y
*CELL ao211d1_hd
*C2_R1_C1 5.330e-03 9.100e-03 5.330e-03 
*LOADS
*RC U9:A 9.701e-05
*RC U340:B 9.701e-05
*END

*R_NET n196 5.570e-03
*DRIVER U341:Y
*CELL nd3d1_hd
*C2_R1_C1 2.785e-03 7.370e-03 2.785e-03 
*LOADS
*RC U340:C 4.105e-05
*END

*R_NET n197 5.620e-03
*DRIVER U352:Y
*CELL nr4d1_hd
*C2_R1_C1 2.810e-03 7.370e-03 2.810e-03 
*LOADS
*RC U341:A 4.142e-05
*END

*R_NET n198 5.630e-03
*DRIVER U351:Y
*CELL nr4d1_hd
*C2_R1_C1 2.815e-03 7.370e-03 2.815e-03 
*LOADS
*RC U341:B 4.149e-05
*END

*R_NET n199 5.600e-03
*DRIVER U342:Y
*CELL nr4d1_hd
*C2_R1_C1 2.800e-03 7.370e-03 2.800e-03 
*LOADS
*RC U341:C 4.127e-05
*END

*R_NET n200 6.070e-03
*DRIVER U348:Y
*CELL nd3d1_hd
*C2_R1_C1 3.035e-03 7.370e-03 3.035e-03 
*LOADS
*RC U342:C 4.474e-05
*END

*R_NET n201 6.180e-03
*DRIVER U343:Y
*CELL nd4d1_hd
*C2_R1_C1 3.090e-03 7.370e-03 3.090e-03 
*LOADS
*RC U342:D 4.555e-05
*END

*R_NET n202 5.740e-03
*DRIVER U347:Y
*CELL nr4d1_hd
*C2_R1_C1 2.870e-03 7.370e-03 2.870e-03 
*LOADS
*RC U343:A 4.230e-05
*END

*R_NET n203 5.740e-03
*DRIVER U346:Y
*CELL nr4d1_hd
*C2_R1_C1 2.870e-03 7.370e-03 2.870e-03 
*LOADS
*RC U343:B 4.230e-05
*END

*R_NET n204 5.770e-03
*DRIVER U345:Y
*CELL nr4d1_hd
*C2_R1_C1 2.885e-03 7.370e-03 2.885e-03 
*LOADS
*RC U343:C 4.252e-05
*END

*R_NET n205 5.740e-03
*DRIVER U344:Y
*CELL nr4d1_hd
*C2_R1_C1 2.870e-03 7.370e-03 2.870e-03 
*LOADS
*RC U343:D 4.230e-05
*END

*R_NET n206 5.620e-03
*DRIVER U350:Y
*CELL nr4d1_hd
*C2_R1_C1 2.810e-03 7.370e-03 2.810e-03 
*LOADS
*RC U348:A 4.142e-05
*END

*R_NET n207 1.058e-02
*DRIVER U367:Y
*CELL ivd1_hd
*C2_R1_C1 5.290e-03 9.100e-03 5.290e-03 
*LOADS
*RC U6:B 9.628e-05
*RC U348:C 9.628e-05
*END

*R_NET n208 6.210e-03
*DRIVER U356:Y
*CELL ad4d1_hd
*C2_R1_C1 3.105e-03 7.370e-03 3.105e-03 
*LOADS
*RC U353:B 4.577e-05
*END

*R_NET n209 2.110e-02
*DRIVER U371:Y
*CELL ivd1_hd
*C2_R1_C1 1.055e-02 1.094e-02 1.055e-02 
*LOADS
*RC U3:D 2.308e-04
*RC U7:B 2.308e-04
*RC U174:A 2.308e-04
*RC U162:A 2.308e-04
*END

*R_NET state\[2\] 4.500e-03
*DRIVER U323:Y
*CELL oa22d1_hd
*C2_R1_C1 2.250e-03 7.370e-03 2.250e-03 
*LOADS
*RC clk_r_REG68_S3:D 3.316e-05
*END

*R_NET state\[1\] 4.500e-03
*DRIVER U324:Y
*CELL oa21d1_hd
*C2_R1_C1 2.250e-03 7.370e-03 2.250e-03 
*LOADS
*RC clk_r_REG110_S4:D 3.316e-05
*END

*R_NET state\[0\] 4.500e-03
*DRIVER U326:Y
*CELL oa22ad1_hd
*C2_R1_C1 2.250e-03 7.370e-03 2.250e-03 
*LOADS
*RC clk_r_REG109_S4:D 3.316e-05
*END

*R_NET i_A\[30\] 1.453e-02
*DRIVER i_A\[30\]
*CELL fd4qd1_hd
*C2_R1_C1 7.265e-03 1.275e-02 7.265e-03 
*LOADS
*RC DP_OP_15_125_2165/clk_r_REG66_S1:D 1.853e-04
*END

*R_NET i_A\[29\] 1.453e-02
*DRIVER i_A\[29\]
*CELL fd4qd1_hd
*C2_R1_C1 7.265e-03 1.275e-02 7.265e-03 
*LOADS
*RC DP_OP_15_125_2165/clk_r_REG111_S1:D 1.853e-04
*END

*R_NET i_A\[28\] 1.453e-02
*DRIVER i_A\[28\]
*CELL fd4qd1_hd
*C2_R1_C1 7.265e-03 1.275e-02 7.265e-03 
*LOADS
*RC DP_OP_15_125_2165/clk_r_REG112_S1:D 1.853e-04
*END

*R_NET i_A\[27\] 1.453e-02
*DRIVER i_A\[27\]
*CELL fd4qd1_hd
*C2_R1_C1 7.265e-03 1.275e-02 7.265e-03 
*LOADS
*RC DP_OP_15_125_2165/clk_r_REG113_S1:D 1.853e-04
*END

*R_NET i_A\[26\] 1.453e-02
*DRIVER i_A\[26\]
*CELL fd4qd1_hd
*C2_R1_C1 7.265e-03 1.275e-02 7.265e-03 
*LOADS
*RC DP_OP_15_125_2165/clk_r_REG114_S1:D 1.853e-04
*END

*R_NET i_A\[25\] 1.453e-02
*DRIVER i_A\[25\]
*CELL fd4qd1_hd
*C2_R1_C1 7.265e-03 1.275e-02 7.265e-03 
*LOADS
*RC DP_OP_15_125_2165/clk_r_REG115_S1:D 1.853e-04
*END

*R_NET i_A\[24\] 1.453e-02
*DRIVER i_A\[24\]
*CELL fd4qd1_hd
*C2_R1_C1 7.265e-03 1.275e-02 7.265e-03 
*LOADS
*RC DP_OP_15_125_2165/clk_r_REG116_S1:D 1.853e-04
*END

*R_NET i_A\[23\] 1.453e-02
*DRIVER i_A\[23\]
*CELL fd4qd1_hd
*C2_R1_C1 7.265e-03 1.275e-02 7.265e-03 
*LOADS
*RC DP_OP_15_125_2165/clk_r_REG117_S1:D 1.853e-04