*SPEF "IEEE 1481-1999"
*DESIGN "converter_f2i"
*DATE "Wed Jun 17 18:59:17 2020"
*VENDOR "SYNOPSYS INC"
*PROGRAM "Synopsys Design Compiler cmos"
*VERSION "F-2011.09-SP5-3"
*DESIGN_FLOW "SYNTHESIS"
*DIVIDER /
*DELIMITER :
*BUS_DELIMITER []
*T_UNIT 1.0 NS
*C_UNIT 1.0 PF
*R_UNIT 1.0 KOHM
*L_UNIT 1.0 HENRY

*PORTS

i_A\[31\] I *L 1.900e-03 *S 1.462e-01 1.662e-01 *D fd4qd1_hd 
i_A\[30\] I *L 1.900e-03 *S 1.462e-01 1.662e-01 *D fd4qd1_hd 
i_A\[29\] I *L 1.900e-03 *S 1.462e-01 1.662e-01 *D fd4qd1_hd 
i_A\[28\] I *L 1.900e-03 *S 1.462e-01 1.662e-01 *D fd4qd1_hd 
i_A\[27\] I *L 1.900e-03 *S 1.462e-01 1.662e-01 *D fd4qd1_hd 
i_A\[26\] I *L 1.900e-03 *S 1.462e-01 1.662e-01 *D fd4qd1_hd 
i_A\[25\] I *L 1.900e-03 *S 1.462e-01 1.662e-01 *D fd4qd1_hd 
i_A\[24\] I *L 1.900e-03 *S 1.462e-01 1.662e-01 *D fd4qd1_hd 
i_A\[23\] I *L 1.900e-03 *S 1.462e-01 1.662e-01 *D fd4qd1_hd 
i_A\[22\] I *L 1.900e-03 *S 1.462e-01 1.662e-01 *D fd4qd1_hd 
i_A\[21\] I *L 1.900e-03 *S 1.462e-01 1.662e-01 *D fd4qd1_hd 
i_A\[20\] I *L 1.900e-03 *S 1.462e-01 1.662e-01 *D fd4qd1_hd 
i_A\[19\] I *L 1.900e-03 *S 1.462e-01 1.662e-01 *D fd4qd1_hd 
i_A\[18\] I *L 1.900e-03 *S 1.462e-01 1.662e-01 *D fd4qd1_hd 
i_A\[17\] I *L 1.900e-03 *S 1.462e-01 1.662e-01 *D fd4qd1_hd 
i_A\[16\] I *L 1.900e-03 *S 1.462e-01 1.662e-01 *D fd4qd1_hd 
i_A\[15\] I *L 1.900e-03 *S 1.462e-01 1.662e-01 *D fd4qd1_hd 
i_A\[14\] I *L 1.900e-03 *S 1.462e-01 1.662e-01 *D fd4qd1_hd 
i_A\[13\] I *L 1.900e-03 *S 1.462e-01 1.662e-01 *D fd4qd1_hd 
i_A\[12\] I *L 1.900e-03 *S 1.462e-01 1.662e-01 *D fd4qd1_hd 
i_A\[11\] I *L 1.900e-03 *S 1.462e-01 1.662e-01 *D fd4qd1_hd 
i_A\[10\] I *L 1.900e-03 *S 1.462e-01 1.662e-01 *D fd4qd1_hd 
i_A\[9\] I *L 1.900e-03 *S 1.462e-01 1.662e-01 *D fd4qd1_hd 
i_A\[8\] I *L 1.900e-03 *S 1.462e-01 1.662e-01 *D fd4qd1_hd 
i_A\[7\] I *L 1.900e-03 *S 1.462e-01 1.662e-01 *D fd4qd1_hd 
i_A\[6\] I *L 1.900e-03 *S 1.462e-01 1.662e-01 *D fd4qd1_hd 
i_A\[5\] I *L 1.900e-03 *S 1.462e-01 1.662e-01 *D fd4qd1_hd 
i_A\[4\] I *L 1.900e-03 *S 1.462e-01 1.662e-01 *D fd4qd1_hd 
i_A\[3\] I *L 1.900e-03 *S 1.462e-01 1.662e-01 *D fd4qd1_hd 
i_A\[2\] I *L 1.900e-03 *S 1.462e-01 1.662e-01 *D fd4qd1_hd 
i_A\[1\] I *L 1.900e-03 *S 1.462e-01 1.662e-01 *D fd4qd1_hd 
i_A\[0\] I *L 1.900e-03 *S 1.462e-01 1.662e-01 *D fd4qd1_hd 
i_A_STB I *L 1.900e-03 *S 1.507e-01 1.705e-01 *D fd4qd1_hd 
o_A_ACK O *L 1.035e-02 *S 3.178e-01 2.234e-01 
o_Z\[31\] O *L 1.035e-02 *S 1.434e-01 1.217e-01 
o_Z\[30\] O *L 1.035e-02 *S 1.434e-01 1.217e-01 
o_Z\[29\] O *L 1.035e-02 *S 1.434e-01 1.217e-01 
o_Z\[28\] O *L 1.035e-02 *S 1.434e-01 1.217e-01 
o_Z\[27\] O *L 1.035e-02 *S 1.434e-01 1.217e-01 
o_Z\[26\] O *L 1.035e-02 *S 1.434e-01 1.217e-01 
o_Z\[25\] O *L 1.035e-02 *S 1.434e-01 1.217e-01 
o_Z\[24\] O *L 1.035e-02 *S 1.434e-01 1.217e-01 
o_Z\[23\] O *L 1.035e-02 *S 1.434e-01 1.217e-01 
o_Z\[22\] O *L 1.035e-02 *S 1.434e-01 1.217e-01 
o_Z\[21\] O *L 1.035e-02 *S 1.434e-01 1.217e-01 
o_Z\[20\] O *L 1.035e-02 *S 1.434e-01 1.217e-01 
o_Z\[19\] O *L 1.035e-02 *S 1.434e-01 1.217e-01 
o_Z\[18\] O *L 1.035e-02 *S 1.434e-01 1.217e-01 
o_Z\[17\] O *L 1.035e-02 *S 1.434e-01 1.217e-01 
o_Z\[16\] O *L 1.035e-02 *S 1.434e-01 1.217e-01 
o_Z\[15\] O *L 1.035e-02 *S 1.434e-01 1.217e-01 
o_Z\[14\] O *L 1.035e-02 *S 1.434e-01 1.217e-01 
o_Z\[13\] O *L 1.035e-02 *S 1.434e-01 1.217e-01 
o_Z\[12\] O *L 1.035e-02 *S 1.434e-01 1.217e-01 
o_Z\[11\] O *L 1.035e-02 *S 1.434e-01 1.217e-01 
o_Z\[10\] O *L 1.035e-02 *S 1.434e-01 1.217e-01 
o_Z\[9\] O *L 1.035e-02 *S 1.434e-01 1.217e-01 
o_Z\[8\] O *L 1.035e-02 *S 1.434e-01 1.217e-01 
o_Z\[7\] O *L 1.035e-02 *S 9.866e-02 8.984e-02 
o_Z\[6\] O *L 1.035e-02 *S 9.866e-02 8.984e-02 
o_Z\[5\] O *L 1.035e-02 *S 9.866e-02 8.984e-02 
o_Z\[4\] O *L 1.035e-02 *S 9.866e-02 8.984e-02 
o_Z\[3\] O *L 1.035e-02 *S 9.866e-02 8.984e-02 
o_Z\[2\] O *L 1.035e-02 *S 9.866e-02 8.984e-02 
o_Z\[1\] O *L 1.035e-02 *S 9.866e-02 8.984e-02 
o_Z\[0\] O *L 1.035e-02 *S 9.866e-02 8.984e-02 
o_Z_STB O *L 1.035e-02 *S 2.059e-01 1.544e-01 
i_Z_ACK I *L 1.900e-03 *S 1.507e-01 1.705e-01 *D fd4qd1_hd 
i_CLK I *L 0.000e+00 *S 0.000e+00 0.000e+00 
i_RST I *L 1.035e-02 *S 0.000e+00 0.000e+00 *D fd3qd1_hd 

*R_NET n196 4.680e-03
*DRIVER U97:Y
*CELL clknd2d1_hd
*C2_R1_C1 2.340e-03 7.370e-03 2.340e-03 
*LOADS
*RC clk_r_REG64_S3:D 3.449e-05
*END

*R_NET n197 4.680e-03
*DRIVER U98:Y
*CELL scg2d1_hd
*C2_R1_C1 2.340e-03 7.370e-03 2.340e-03 
*LOADS
*RC clk_r_REG2_S3:D 3.449e-05
*END

*R_NET n198 4.680e-03
*DRIVER U99:Y
*CELL scg2d1_hd
*C2_R1_C1 2.340e-03 7.370e-03 2.340e-03 
*LOADS
*RC clk_r_REG4_S3:D 3.449e-05
*END

*R_NET n199 4.680e-03
*DRIVER U100:Y
*CELL scg2d1_hd
*C2_R1_C1 2.340e-03 7.370e-03 2.340e-03 
*LOADS
*RC clk_r_REG6_S3:D 3.449e-05
*END

*R_NET n200 4.680e-03
*DRIVER U101:Y
*CELL scg2d1_hd
*C2_R1_C1 2.340e-03 7.370e-03 2.340e-03 
*LOADS
*RC clk_r_REG8_S3:D 3.449e-05
*END

*R_NET n201 4.680e-03
*DRIVER U102:Y
*CELL scg2d1_hd
*C2_R1_C1 2.340e-03 7.370e-03 2.340e-03 
*LOADS
*RC clk_r_REG10_S3:D 3.449e-05
*END

*R_NET n202 4.680e-03
*DRIVER U103:Y
*CELL scg2d1_hd
*C2_R1_C1 2.340e-03 7.370e-03 2.340e-03 
*LOADS
*RC clk_r_REG12_S3:D 3.449e-05
*END

*R_NET n203 4.680e-03
*DRIVER U128:Y
*CELL scg2d1_hd
*C2_R1_C1 2.340e-03 7.370e-03 2.340e-03 
*LOADS
*RC clk_r_REG62_S3:D 3.449e-05
*END

*R_NET n204 4.680e-03
*DRIVER U127:Y
*CELL scg2d1_hd
*C2_R1_C1 2.340e-03 7.370e-03 2.340e-03 
*LOADS
*RC clk_r_REG60_S3:D 3.449e-05
*END

*R_NET n205 4.680e-03
*DRIVER U126:Y
*CELL scg2d1_hd
*C2_R1_C1 2.340e-03 7.370e-03 2.340e-03 
*LOADS
*RC clk_r_REG58_S3:D 3.449e-05
*END

*R_NET n206 4.680e-03
*DRIVER U125:Y
*CELL scg2d1_hd
*C2_R1_C1 2.340e-03 7.370e-03 2.340e-03 
*LOADS
*RC clk_r_REG56_S3:D 3.449e-05
*END

*R_NET n207 4.680e-03
*DRIVER U124:Y
*CELL scg2d1_hd
*C2_R1_C1 2.340e-03 7.370e-03 2.340e-03 
*LOADS
*RC clk_r_REG54_S3:D 3.449e-05
*END

*R_NET n208 4.680e-03
*DRIVER U123:Y
*CELL scg2d1_hd
*C2_R1_C1 2.340e-03 7.370e-03 2.340e-03 
*LOADS
*RC clk_r_REG52_S3:D 3.449e-05
*END

*R_NET n209 4.680e-03
*DRIVER U122:Y
*CELL scg2d1_hd
*C2_R1_C1 2.340e-03 7.370e-03 2.340e-03 
*LOADS
*RC clk_r_REG50_S3:D 3.449e-05
*END

*R_NET n210 4.680e-03
*DRIVER U121:Y
*CELL scg2d1_hd
*C2_R1_C1 2.340e-03 7.370e-03 2.340e-03 
*LOADS
*RC clk_r_REG48_S3:D 3.449e-05
*END

*R_NET n211 4.680e-03
*DRIVER U120:Y
*CELL scg2d1_hd
*C2_R1_C1 2.340e-03 7.370e-03 2.340e-03 
*LOADS
*RC clk_r_REG46_S3:D 3.449e-05
*END

*R_NET n212 4.680e-03
*DRIVER U119:Y
*CELL scg2d1_hd
*C2_R1_C1 2.340e-03 7.370e-03 2.340e-03 
*LOADS
*RC clk_r_REG44_S3:D 3.449e-05
*END

*R_NET n213 4.680e-03
*DRIVER U118:Y
*CELL scg2d1_hd
*C2_R1_C1 2.340e-03 7.370e-03 2.340e-03 
*LOADS
*RC clk_r_REG42_S3:D 3.449e-05
*END

*R_NET n214 4.680e-03
*DRIVER U117:Y
*CELL scg2d1_hd
*C2_R1_C1 2.340e-03 7.370e-03 2.340e-03 
*LOADS
*RC clk_r_REG40_S3:D 3.449e-05
*END

*R_NET n215 4.680e-03
*DRIVER U116:Y
*CELL scg2d1_hd
*C2_R1_C1 2.340e-03 7.370e-03 2.340e-03 
*LOADS
*RC clk_r_REG38_S3:D 3.449e-05
*END

*R_NET n216 4.680e-03
*DRIVER U115:Y
*CELL scg2d1_hd
*C2_R1_C1 2.340e-03 7.370e-03 2.340e-03 
*LOADS
*RC clk_r_REG36_S3:D 3.449e-05
*END

*R_NET n217 4.680e-03
*DRIVER U114:Y
*CELL scg2d1_hd
*C2_R1_C1 2.340e-03 7.370e-03 2.340e-03 
*LOADS
*RC clk_r_REG34_S3:D 3.449e-05
*END

*R_NET n218 4.680e-03
*DRIVER U113:Y
*CELL scg2d1_hd
*C2_R1_C1 2.340e-03 7.370e-03 2.340e-03 
*LOADS
*RC clk_r_REG32_S3:D 3.449e-05
*END

*R_NET n219 4.680e-03
*DRIVER U112:Y
*CELL scg2d1_hd
*C2_R1_C1 2.340e-03 7.370e-03 2.340e-03 
*LOADS
*RC clk_r_REG30_S3:D 3.449e-05
*END

*R_NET n220 4.680e-03
*DRIVER U111:Y
*CELL scg2d1_hd
*C2_R1_C1 2.340e-03 7.370e-03 2.340e-03 
*LOADS
*RC clk_r_REG28_S3:D 3.449e-05
*END

*R_NET n221 4.680e-03
*DRIVER U110:Y
*CELL scg2d1_hd
*C2_R1_C1 2.340e-03 7.370e-03 2.340e-03 
*LOADS
*RC clk_r_REG26_S3:D 3.449e-05
*END

*R_NET n222 4.680e-03
*DRIVER U109:Y
*CELL scg2d1_hd
*C2_R1_C1 2.340e-03 7.370e-03 2.340e-03 
*LOADS
*RC clk_r_REG24_S3:D 3.449e-05
*END

*R_NET n223 4.680e-03
*DRIVER U108:Y
*CELL scg2d1_hd
*C2_R1_C1 2.340e-03 7.370e-03 2.340e-03 
*LOADS
*RC clk_r_REG22_S3:D 3.449e-05
*END

*R_NET n224 4.680e-03
*DRIVER U107:Y
*CELL scg2d1_hd
*C2_R1_C1 2.340e-03 7.370e-03 2.340e-03 
*LOADS
*RC clk_r_REG20_S3:D 3.449e-05
*END

*R_NET n225 4.680e-03
*DRIVER U106:Y
*CELL scg2d1_hd
*C2_R1_C1 2.340e-03 7.370e-03 2.340e-03 
*LOADS
*RC clk_r_REG18_S3:D 3.449e-05
*END

*R_NET n226 4.680e-03
*DRIVER U105:Y
*CELL scg2d1_hd
*C2_R1_C1 2.340e-03 7.370e-03 2.340e-03 
*LOADS
*RC clk_r_REG16_S3:D 3.449e-05
*END

*R_NET n227 4.680e-03
*DRIVER U104:Y
*CELL scg2d1_hd
*C2_R1_C1 2.340e-03 7.370e-03 2.340e-03 
*LOADS
*RC clk_r_REG14_S3:D 3.449e-05
*END

*R_NET i_A_STB 1.505e-02
*DRIVER i_A_STB
*CELL fd4qd1_hd
*C2_R1_C1 7.525e-03 1.275e-02 7.525e-03 
*LOADS
*RC U171:A 1.919e-04
*END

*R_NET i_Z_ACK 1.505e-02
*DRIVER i_Z_ACK
*CELL fd4qd1_hd
*C2_R1_C1 7.525e-03 1.275e-02 7.525e-03 
*LOADS
*RC U162:A 1.919e-04
*END

*R_NET i_CLK 2.985e-02
*DRIVER i_CLK
*CELL NULL
*C2_R1_C1 1.492e-02 0.000e+00 1.492e-02 
*LOADS
*RC clk_gate_clk_r_REG73_S4_0/latch:CK 0.000e+00
*RC clk_gate_clk_r_REG64_S3_0/latch:CK 0.000e+00
*RC clk_gate_clk_r_REG3_S4_0/latch:CK 0.000e+00
*RC clk_gate_clk_r_REG66_S1/latch:CK 0.000e+00
*RC clk_r_REG107_S3:CK 0.000e+00
*RC clk_r_REG69_S3:CK 0.000e+00
*RC clk_r_REG68_S3:CK 0.000e+00
*RC clk_r_REG109_S4:CK 0.000e+00
*RC clk_r_REG108_S4:CK 0.000e+00
*RC clk_r_REG72_S5:CK 0.000e+00
*RC clk_r_REG71_S4:CK 0.000e+00
*RC clk_r_REG70_S4:CK 0.000e+00
*RC clk_r_REG75_S5:CK 0.000e+00
*RC clk_r_REG67_S2:CK 0.000e+00
*RC clk_r_REG142_S1:CK 0.000e+00
*RC clk_r_REG141_S1:CK 0.000e+00
*END

*R_NET n195 9.330e-03
*DRIVER U171:Y
*CELL clknd2d1_hd
*C2_R1_C1 4.665e-03 9.100e-03 4.665e-03 
*LOADS
*RC U22:A 8.490e-05
*RC U32:A 8.490e-05
*END

*R_NET n228 9.820e-03
*DRIVER U162:Y
*CELL clknd2d1_hd
*C2_R1_C1 4.910e-03 9.100e-03 4.910e-03 
*LOADS
*RC U34:A 8.936e-05
*RC U192:B 8.936e-05
*END

*R_NET N17 9.260e-03
*DRIVER U195:Y
*CELL nr2d1_hd
*C2_R1_C1 4.630e-03 9.100e-03 4.630e-03 
*LOADS
*RC U33:AN 8.427e-05
*RC U194:A 8.427e-05
*END

*R_NET N29 1.535e-02
*DRIVER U21:Y
*CELL nr2d1_hd
*C2_R1_C1 7.675e-03 9.460e-03 7.675e-03 
*LOADS
*RC clk_gate_clk_r_REG3_S4_0/latch:EN 1.452e-04
*RC U35:AN 1.452e-04
*RC U192:A 1.452e-04
*END

*R_NET i_A\[31\] 1.453e-02
*DRIVER i_A\[31\]
*CELL fd4qd1_hd
*C2_R1_C1 7.265e-03 1.275e-02 7.265e-03 
*LOADS
*RC clk_r_REG0_S1:D 1.853e-04
*END

*R_NET N63 4.780e-03
*DRIVER sub_x_3/U68:Y
*CELL nid1_hd
*C2_R1_C1 2.390e-03 7.370e-03 2.390e-03 
*LOADS
*RC U104:B 3.523e-05
*END

*R_NET N64 4.780e-03
*DRIVER sub_x_3/U31:S
*CELL had1_hd
*C2_R1_C1 2.390e-03 7.370e-03 2.390e-03 
*LOADS
*RC U105:B 3.523e-05
*END

*R_NET N65 4.780e-03
*DRIVER sub_x_3/U30:S
*CELL had1_hd
*C2_R1_C1 2.390e-03 7.370e-03 2.390e-03 
*LOADS
*RC U106:B 3.523e-05
*END

*R_NET N66 4.780e-03
*DRIVER sub_x_3/U29:S
*CELL had1_hd
*C2_R1_C1 2.390e-03 7.370e-03 2.390e-03 
*LOADS
*RC U107:B 3.523e-05
*END

*R_NET N67 4.780e-03
*DRIVER sub_x_3/U28:S
*CELL had1_hd
*C2_R1_C1 2.390e-03 7.370e-03 2.390e-03 
*LOADS
*RC U108:B 3.523e-05
*END

*R_NET N68 4.780e-03
*DRIVER sub_x_3/U27:S
*CELL had1_hd
*C2_R1_C1 2.390e-03 7.370e-03 2.390e-03 
*LOADS
*RC U109:B 3.523e-05
*END

*R_NET N69 4.780e-03
*DRIVER sub_x_3/U26:S
*CELL had1_hd
*C2_R1_C1 2.390e-03 7.370e-03 2.390e-03 
*LOADS
*RC U110:B 3.523e-05
*END

*R_NET N70 4.780e-03
*DRIVER sub_x_3/U25:S
*CELL had1_hd
*C2_R1_C1 2.390e-03 7.370e-03 2.390e-03 
*LOADS
*RC U111:B 3.523e-05
*END

*R_NET N71 4.780e-03
*DRIVER sub_x_3/U24:S
*CELL had1_hd
*C2_R1_C1 2.390e-03 7.370e-03 2.390e-03 
*LOADS
*RC U112:B 3.523e-05
*END

*R_NET N72 4.780e-03
*DRIVER sub_x_3/U23:S
*CELL had1_hd
*C2_R1_C1 2.390e-03 7.370e-03 2.390e-03 
*LOADS
*RC U113:B 3.523e-05
*END

*R_NET N73 4.780e-03
*DRIVER sub_x_3/U22:S
*CELL had1_hd
*C2_R1_C1 2.390e-03 7.370e-03 2.390e-03 
*LOADS
*RC U114:B 3.523e-05
*END

*R_NET N74 4.780e-03
*DRIVER sub_x_3/U21:S
*CELL had1_hd
*C2_R1_C1 2.390e-03 7.370e-03 2.390e-03 
*LOADS
*RC U115:B 3.523e-05
*END

*R_NET N75 4.780e-03
*DRIVER sub_x_3/U20:S
*CELL had1_hd
*C2_R1_C1 2.390e-03 7.370e-03 2.390e-03 
*LOADS
*RC U116:B 3.523e-05
*END

*R_NET N76 4.780e-03
*DRIVER sub_x_3/U19:S
*CELL had1_hd
*C2_R1_C1 2.390e-03 7.370e-03 2.390e-03 
*LOADS
*RC U117:B 3.523e-05
*END

*R_NET N77 4.780e-03
*DRIVER sub_x_3/U18:S
*CELL had1_hd
*C2_R1_C1 2.390e-03 7.370e-03 2.390e-03 
*LOADS
*RC U118:B 3.523e-05
*END

*R_NET N78 4.780e-03
*DRIVER sub_x_3/U17:S
*CELL had1_hd
*C2_R1_C1 2.390e-03 7.370e-03 2.390e-03 
*LOADS
*RC U119:B 3.523e-05
*END

*R_NET N79 4.780e-03
*DRIVER sub_x_3/U16:S
*CELL had1_hd
*C2_R1_C1 2.390e-03 7.370e-03 2.390e-03 
*LOADS
*RC U120:B 3.523e-05
*END

*R_NET N80 4.780e-03
*DRIVER sub_x_3/U15:S
*CELL had1_hd
*C2_R1_C1 2.390e-03 7.370e-03 2.390e-03 
*LOADS
*RC U121:B 3.523e-05
*END

*R_NET N81 4.780e-03
*DRIVER sub_x_3/U14:S
*CELL had1_hd
*C2_R1_C1 2.390e-03 7.370e-03 2.390e-03 
*LOADS
*RC U122:B 3.523e-05
*END

*R_NET N82 4.780e-03
*DRIVER sub_x_3/U13:S
*CELL had1_hd
*C2_R1_C1 2.390e-03 7.370e-03 2.390e-03 
*LOADS
*RC U123:B 3.523e-05
*END

*R_NET N83 4.780e-03
*DRIVER sub_x_3/U12:S
*CELL had1_hd
*C2_R1_C1 2.390e-03 7.370e-03 2.390e-03 
*LOADS
*RC U124:B 3.523e-05
*END

*R_NET N84 4.780e-03
*DRIVER sub_x_3/U11:S
*CELL had1_hd
*C2_R1_C1 2.390e-03 7.370e-03 2.390e-03 
*LOADS
*RC U125:B 3.523e-05
*END

*R_NET N85 4.780e-03
*DRIVER sub_x_3/U10:S
*CELL had1_hd
*C2_R1_C1 2.390e-03 7.370e-03 2.390e-03 
*LOADS
*RC U126:B 3.523e-05
*END

*R_NET N86 4.780e-03
*DRIVER sub_x_3/U9:S
*CELL had1_hd
*C2_R1_C1 2.390e-03 7.370e-03 2.390e-03 
*LOADS
*RC U127:B 3.523e-05
*END

*R_NET N87 4.780e-03
*DRIVER sub_x_3/U8:S
*CELL had1_hd
*C2_R1_C1 2.390e-03 7.370e-03 2.390e-03 
*LOADS
*RC U128:B 3.523e-05
*END

*R_NET N88 4.780e-03
*DRIVER sub_x_3/U7:S
*CELL had1_hd
*C2_R1_C1 2.390e-03 7.370e-03 2.390e-03 
*LOADS
*RC U103:B 3.523e-05
*END

*R_NET N89 4.780e-03
*DRIVER sub_x_3/U6:S
*CELL had1_hd
*C2_R1_C1 2.390e-03 7.370e-03 2.390e-03 
*LOADS
*RC U102:B 3.523e-05
*END

*R_NET N90 4.780e-03
*DRIVER sub_x_3/U5:S
*CELL had1_hd
*C2_R1_C1 2.390e-03 7.370e-03 2.390e-03 
*LOADS
*RC U101:B 3.523e-05
*END

*R_NET N91 4.780e-03
*DRIVER sub_x_3/U4:S
*CELL had1_hd
*C2_R1_C1 2.390e-03 7.370e-03 2.390e-03 
*LOADS
*RC U100:B 3.523e-05
*END

*R_NET N92 4.780e-03
*DRIVER sub_x_3/U3:S
*CELL had1_hd
*C2_R1_C1 2.390e-03 7.370e-03 2.390e-03 
*LOADS
*RC U99:B 3.523e-05
*END

*R_NET N93 4.780e-03
*DRIVER sub_x_3/U2:S
*CELL had1_hd
*C2_R1_C1 2.390e-03 7.370e-03 2.390e-03 
*LOADS
*RC U98:B 3.523e-05
*END

*R_NET N94 5.800e-03
*DRIVER sub_x_3/U100:Y
*CELL xn2d1_hd
*C2_R1_C1 2.900e-03 7.370e-03 2.900e-03 
*LOADS
*RC U175:B 4.275e-05
*END

*R_NET N135 1.910e-02
*DRIVER U192:Y
*CELL scg16d1_hd
*C2_R1_C1 9.550e-03 9.460e-03 9.550e-03 
*LOADS
*RC clk_r_REG107_S3:E 1.807e-04
*RC clk_r_REG69_S3:E 1.807e-04
*RC clk_r_REG68_S3:E 1.807e-04
*END

*R_NET N139 1.132e-02
*DRIVER U22:Y
*CELL nr2d1_hd
*C2_R1_C1 5.660e-03 9.100e-03 5.660e-03 
*LOADS
*RC clk_gate_clk_r_REG66_S1/latch:EN 1.030e-04
*RC U193:C 1.030e-04
*END

*R_NET N171 6.029e-02
*DRIVER U28:Y
*CELL scg20d2_hd
*C2_R1_C1 3.015e-02 2.090e-02 3.015e-02 
*LOADS
*RC clk_r_REG109_S4:E 1.260e-03
*RC clk_r_REG108_S4:E 1.260e-03
*RC clk_r_REG74_S4:E 1.260e-03
*RC clk_r_REG73_S4:E 1.260e-03
*RC clk_r_REG72_S5:E 1.260e-03
*RC clk_r_REG71_S4:E 1.260e-03
*RC clk_r_REG70_S4:E 1.260e-03
*RC clk_r_REG75_S5:E 1.260e-03
*RC clk_r_REG67_S2:E 1.260e-03
*END

*R_NET N181 6.030e-03
*DRIVER U19:Y
*CELL nd2bd1_hd
*C2_R1_C1 3.015e-03 7.370e-03 3.015e-03 
*LOADS
*RC clk_gate_clk_r_REG64_S3_0/latch:EN 4.444e-05
*END

*R_NET n1 1.399e-02
*DRIVER U3:Y
*CELL ivd1_hd
*C2_R1_C1 6.995e-03 7.370e-03 6.995e-03 
*LOADS
*RC U15:A 1.031e-04
*END

*R_NET n2 1.399e-02
*DRIVER U4:Y
*CELL ivd1_hd
*C2_R1_C1 6.995e-03 7.370e-03 6.995e-03 
*LOADS
*RC U17:A 1.031e-04
*END

*R_NET n3 1.399e-02
*DRIVER U5:Y
*CELL ivd1_hd
*C2_R1_C1 6.995e-03 7.370e-03 6.995e-03 
*LOADS
*RC U18:A 1.031e-04
*END

*R_NET n4 1.399e-02
*DRIVER U6:Y
*CELL ivd1_hd
*C2_R1_C1 6.995e-03 7.370e-03 6.995e-03 
*LOADS
*RC U16:A 1.031e-04
*END

*R_NET n5 1.399e-02
*DRIVER U7:Y
*CELL ivd1_hd
*C2_R1_C1 6.995e-03 7.370e-03 6.995e-03 
*LOADS
*RC U14:A 1.031e-04
*END

*R_NET C1_DATA1_8 4.670e-03
*DRIVER DP_OP_15_125_5858/U13:Y
*CELL nr2d1_hd
*C2_R1_C1 2.335e-03 7.370e-03 2.335e-03 
*LOADS
*RC U137:D 3.442e-05
*END

*R_NET C1_DATA1_7 4.670e-03
*DRIVER DP_OP_15_125_5858/U14:Y
*CELL ao22d1_hd
*C2_R1_C1 2.335e-03 7.370e-03 2.335e-03 
*LOADS
*RC U136:D 3.442e-05
*END

*R_NET C1_DATA1_6 4.670e-03
*DRIVER DP_OP_15_125_5858/U4:S
*CELL had1_hd
*C2_R1_C1 2.335e-03 7.370e-03 2.335e-03 
*LOADS
*RC U135:D 3.442e-05
*END

*R_NET C1_DATA1_5 4.670e-03
*DRIVER DP_OP_15_125_5858/U5:S
*CELL had1_hd
*C2_R1_C1 2.335e-03 7.370e-03 2.335e-03 
*LOADS
*RC U134:D 3.442e-05
*END

*R_NET C1_DATA1_4 4.670e-03
*DRIVER DP_OP_15_125_5858/U6:S
*CELL had1_hd
*C2_R1_C1 2.335e-03 7.370e-03 2.335e-03 
*LOADS
*RC U133:D 3.442e-05
*END

*R_NET C1_DATA1_3 4.670e-03
*DRIVER DP_OP_15_125_5858/U7:S
*CELL had1_hd
*C2_R1_C1 2.335e-03 7.370e-03 2.335e-03 
*LOADS
*RC U132:D 3.442e-05
*END

*R_NET C1_DATA1_2 4.670e-03
*DRIVER DP_OP_15_125_5858/U8:S
*CELL had1_hd
*C2_R1_C1 2.335e-03 7.370e-03 2.335e-03 
*LOADS
*RC U131:D 3.442e-05
*END

*R_NET C1_DATA1_1 4.670e-03
*DRIVER DP_OP_15_125_5858/U9:S
*CELL had1_hd
*C2_R1_C1 2.335e-03 7.370e-03 2.335e-03 
*LOADS
*RC U130:D 3.442e-05
*END

*R_NET C1_DATA1_0 4.670e-03
*DRIVER DP_OP_15_125_5858/U17:Y
*CELL ivd1_hd
*C2_R1_C1 2.335e-03 7.370e-03 2.335e-03 
*LOADS
*RC U129:D 3.442e-05
*END

*R_NET C1_DATA2_8 4.780e-03
*DRIVER DP_OP_16_126_6114/U12:Y
*CELL xo2d1_hd
*C2_R1_C1 2.390e-03 7.370e-03 2.390e-03 
*LOADS
*RC U137:B 3.523e-05
*END

*R_NET C1_DATA2_7 4.780e-03
*DRIVER DP_OP_16_126_6114/U2:S
*CELL had1_hd
*C2_R1_C1 2.390e-03 7.370e-03 2.390e-03 
*LOADS
*RC U136:B 3.523e-05
*END

*R_NET C1_DATA2_6 4.780e-03
*DRIVER DP_OP_16_126_6114/U3:S
*CELL had1_hd
*C2_R1_C1 2.390e-03 7.370e-03 2.390e-03 
*LOADS
*RC U135:B 3.523e-05
*END

*R_NET C1_DATA2_5 4.780e-03
*DRIVER DP_OP_16_126_6114/U4:S
*CELL had1_hd
*C2_R1_C1 2.390e-03 7.370e-03 2.390e-03 
*LOADS
*RC U134:B 3.523e-05
*END

*R_NET C1_DATA2_4 4.780e-03
*DRIVER DP_OP_16_126_6114/U5:S
*CELL had1_hd
*C2_R1_C1 2.390e-03 7.370e-03 2.390e-03 
*LOADS
*RC U133:B 3.523e-05
*END

*R_NET C1_DATA2_3 4.780e-03
*DRIVER DP_OP_16_126_6114/U6:S
*CELL had1_hd
*C2_R1_C1 2.390e-03 7.370e-03 2.390e-03 
*LOADS
*RC U132:B 3.523e-05
*END

*R_NET C1_DATA2_2 4.780e-03
*DRIVER DP_OP_16_126_6114/U7:S
*CELL had1_hd
*C2_R1_C1 2.390e-03 7.370e-03 2.390e-03 
*LOADS
*RC U131:B 3.523e-05
*END

*R_NET C1_DATA2_1 4.780e-03
*DRIVER DP_OP_16_126_6114/U8:S
*CELL had1_hd
*C2_R1_C1 2.390e-03 7.370e-03 2.390e-03 
*LOADS
*RC U130:B 3.523e-05
*END

*R_NET C1_DATA2_0 4.780e-03
*DRIVER DP_OP_16_126_6114/U13:Y
*CELL ivd1_hd
*C2_R1_C1 2.390e-03 7.370e-03 2.390e-03 
*LOADS
*RC U129:B 3.523e-05
*END

*R_NET n21 6.900e-03
*DRIVER U163:Y
*CELL or2d1_hd
*C2_R1_C1 3.450e-03 7.370e-03 3.450e-03 
*LOADS
*RC U20:A 5.085e-05
*END

*R_NET n24 5.200e-03
*DRIVER U175:Y
*CELL ao22d1_hd
*C2_R1_C1 2.600e-03 7.370e-03 2.600e-03 
*LOADS
*RC U97:A 3.832e-05
*END

*R_NET n25 9.960e-03
*DRIVER U94:Y
*CELL clknd2d1_hd
*C2_R1_C1 4.980e-03 9.100e-03 4.980e-03 
*LOADS
*RC U177:C 9.064e-05
*RC U97:B 9.064e-05
*END

*R_NET n26 1.213e-01
*DRIVER U164:Y
*CELL ad2bd2_hd
*C2_R1_C1 6.063e-02 3.642e-02 6.063e-02 
*LOADS
*RC U175:A 4.416e-03
*RC U128:A 4.416e-03
*RC U127:A 4.416e-03
*RC U126:A 4.416e-03
*RC U125:A 4.416e-03
*RC U124:A 4.416e-03
*RC U123:A 4.416e-03
*RC U122:A 4.416e-03
*RC U121:A 4.416e-03
*RC U120:A 4.416e-03
*RC U119:A 4.416e-03
*RC U118:A 4.416e-03
*RC U117:A 4.416e-03
*RC U116:A 4.416e-03
*RC U115:A 4.416e-03
*RC U114:A 4.416e-03
*RC U113:A 4.416e-03
*RC U112:A 4.416e-03
*RC U111:A 4.416e-03
*RC U110:A 4.416e-03
*RC U109:A 4.416e-03
*RC U108:A 4.416e-03
*RC U107:A 4.416e-03
*RC U106:A 4.416e-03
*RC U105:A 4.416e-03
*RC U104:A 4.416e-03
*RC U103:A 4.416e-03
*RC U102:A 4.416e-03
*RC U101:A 4.416e-03
*RC U100:A 4.416e-03
*RC U99:A 4.416e-03
*RC U98:A 4.416e-03
*END

*R_NET n27 2.315e-02
*DRIVER U213:Y
*CELL nr2d1_hd
*C2_R1_C1 1.158e-02 1.094e-02 1.158e-02 
*LOADS
*RC U193:A 2.533e-04
*RC U186:B 2.533e-04
*RC U175:C 2.533e-04
*RC U96:A 2.533e-04
*END

*R_NET n28 1.088e-02
*DRIVER U189:Y
*CELL ao21d1_hd
*C2_R1_C1 5.440e-03 9.100e-03 5.440e-03 
*LOADS
*RC U188:B 9.901e-05
*RC U175:D 9.901e-05
*END

*R_NET n29 1.153e-01
*DRIVER U168:Y
*CELL nr2d4_hd
*C2_R1_C1 5.763e-02 3.556e-02 5.763e-02 
*LOADS
*RC U128:C 4.098e-03
*RC U127:C 4.098e-03
*RC U126:C 4.098e-03
*RC U125:C 4.098e-03
*RC U124:C 4.098e-03
*RC U123:C 4.098e-03
*RC U122:C 4.098e-03
*RC U121:C 4.098e-03
*RC U120:C 4.098e-03
*RC U119:C 4.098e-03
*RC U118:C 4.098e-03
*RC U117:C 4.098e-03
*RC U116:C 4.098e-03
*RC U115:C 4.098e-03
*RC U114:C 4.098e-03
*RC U113:C 4.098e-03
*RC U112:C 4.098e-03
*RC U111:C 4.098e-03
*RC U110:C 4.098e-03
*RC U109:C 4.098e-03
*RC U108:C 4.098e-03
*RC U107:C 4.098e-03
*RC U106:C 4.098e-03
*RC U105:C 4.098e-03
*RC U104:C 4.098e-03
*RC U103:C 4.098e-03
*RC U102:C 4.098e-03
*RC U101:C 4.098e-03
*RC U100:C 4.098e-03
*RC U99:C 4.098e-03
*RC U98:C 4.098e-03
*END

*R_NET n30 1.645e-02
*DRIVER U176:Y
*CELL nd2bd1_hd
*C2_R1_C1 8.225e-03 9.100e-03 8.225e-03 
*LOADS
*RC U168:B 1.497e-04
*RC U164:AN 1.497e-04
*END

*R_NET n31 5.472e-02
*DRIVER U13:Y
*CELL ad2bd1_hd
*C2_R1_C1 2.736e-02 2.163e-02 2.736e-02 
*LOADS
*RC U212:A 1.184e-03
*RC U176:B 1.184e-03
*RC U137:A 1.184e-03
*RC U136:A 1.184e-03
*RC U135:A 1.184e-03
*RC U134:A 1.184e-03
*RC U133:A 1.184e-03
*RC U132:A 1.184e-03
*RC U131:A 1.184e-03
*RC U130:A 1.184e-03
*RC U129:A 1.184e-03
*RC U94:A 1.184e-03
*END

*R_NET n32 1.008e-02
*DRIVER U196:Y
*CELL nr2d1_hd
*C2_R1_C1 5.040e-03 9.100e-03 5.040e-03 
*LOADS
*RC U19:AN 9.173e-05
*RC U193:B 9.173e-05
*END

*R_NET n33 9.990e-03
*DRIVER U186:Y
*CELL nd2bd1_hd
*C2_R1_C1 4.995e-03 9.100e-03 4.995e-03 
*LOADS
*RC U19:B 9.091e-05
*RC U161:B 9.091e-05
*END

*R_NET n34 2.184e-02
*DRIVER U214:Y
*CELL ivd1_hd
*C2_R1_C1 1.092e-02 1.094e-02 1.092e-02 
*LOADS
*RC U28:A 2.389e-04
*RC clk_r_REG110_S4:D 2.389e-04
*RC U179:B 2.389e-04
*RC U173:B 2.389e-04
*END

*R_NET n35 1.063e-02
*DRIVER U197:Y
*CELL scg10d1_hd
*C2_R1_C1 5.315e-03 9.100e-03 5.315e-03 
*LOADS
*RC U28:B 9.673e-05
*RC U196:B 9.673e-05
*END

*R_NET n36 1.846e-02
*DRIVER U95:Y
*CELL clknd2d1_hd
*C2_R1_C1 9.230e-03 9.460e-03 9.230e-03 
*LOADS
*RC U28:C 1.746e-04
*RC U178:B 1.746e-04
*RC U163:B 1.746e-04
*END

*R_NET n37 4.799e-02
*DRIVER U212:Y
*CELL ivd1_hd
*C2_R1_C1 2.400e-02 2.066e-02 2.400e-02 
*LOADS
*RC U196:A 9.915e-04
*RC U185:B 9.915e-04
*RC U184:B 9.915e-04
*RC U183:B 9.915e-04
*RC U182:B 9.915e-04
*RC U181:B 9.915e-04
*RC U180:B 9.915e-04
*RC U161:A 9.915e-04
*END

*R_NET n38 9.230e-03
*DRIVER U188:Y
*CELL nr2bd1_hd
*C2_R1_C1 4.615e-03 9.100e-03 4.615e-03 
*LOADS
*RC U186:AN 8.399e-05
*RC U96:B 8.399e-05
*END

*R_NET n39 1.006e-02
*DRIVER U194:Y
*CELL ivd1_hd
*C2_R1_C1 5.030e-03 9.100e-03 5.030e-03 
*LOADS
*RC U22:B 9.155e-05
*RC U160:A 9.155e-05
*END

*R_NET n40 9.990e-03
*DRIVER U96:Y
*CELL clknd2d1_hd
*C2_R1_C1 4.995e-03 9.100e-03 4.995e-03 
*LOADS
*RC U187:B 9.091e-05
*RC U160:B 9.091e-05
*END

*R_NET n41 4.920e-03
*DRIVER U190:Y
*CELL nd4d1_hd
*C2_R1_C1 2.460e-03 7.370e-03 2.460e-03 
*LOADS
*RC U188:AN 3.626e-05
*END

*R_NET n42 1.645e-02
*DRIVER U200:Y
*CELL nr2d1_hd
*C2_R1_C1 8.225e-03 9.460e-03 8.225e-03 
*LOADS
*RC U199:A 1.556e-04
*RC U190:A 1.556e-04
*RC U189:A 1.556e-04
*END

*R_NET n43 1.131e-02
*DRIVER U11:Y
*CELL ivd1_hd
*C2_R1_C1 5.655e-03 9.100e-03 5.655e-03 
*LOADS
*RC U191:D 1.029e-04
*RC U189:B 1.029e-04
*END

*R_NET n44 5.770e-03
*DRIVER U191:Y
*CELL nr4d1_hd
*C2_R1_C1 2.885e-03 7.370e-03 2.885e-03 
*LOADS
*RC U190:C 4.252e-05
*END

*R_NET n45 5.740e-03
*DRIVER U12:Y
*CELL ivd1_hd
*C2_R1_C1 2.870e-03 7.370e-03 2.870e-03 
*LOADS
*RC U190:D 4.230e-05
*END

*R_NET n46 5.620e-03
*DRIVER U193:Y
*CELL nr4d1_hd
*C2_R1_C1 2.810e-03 7.370e-03 2.810e-03 
*LOADS
*RC U192:C 4.142e-05
*END

*R_NET n47 1.556e-02
*DRIVER U216:Y
*CELL ivd1_hd
*C2_R1_C1 7.780e-03 9.460e-03 7.780e-03 
*LOADS
*RC U21:A 1.472e-04
*RC U169:B 1.472e-04
*RC U95:B 1.472e-04
*END

*R_NET n48 1.050e-02
*DRIVER U173:Y
*CELL clknd2d1_hd
*C2_R1_C1 5.250e-03 9.100e-03 5.250e-03 
*LOADS
*RC U21:B 9.555e-05
*RC U195:B 9.555e-05
*END

*R_NET n49 4.650e-03
*DRIVER U207:Y
*CELL nd4d1_hd
*C2_R1_C1 2.325e-03 7.370e-03 2.325e-03 
*LOADS
*RC U197:A 3.427e-05
*END

*R_NET n50 4.760e-03
*DRIVER U202:Y
*CELL nd4d1_hd
*C2_R1_C1 2.380e-03 7.370e-03 2.380e-03 
*LOADS
*RC U197:B 3.508e-05
*END

*R_NET n51 9.670e-03
*DRIVER U198:Y
*CELL ao211d1_hd
*C2_R1_C1 4.835e-03 9.100e-03 4.835e-03 
*LOADS
*RC U179:A 8.800e-05
*RC U197:C 8.800e-05
*END

*R_NET n52 6.180e-03
*DRIVER U201:Y
*CELL ad4d1_hd
*C2_R1_C1 3.090e-03 7.370e-03 3.090e-03 
*LOADS
*RC U198:A 4.555e-05
*END

*R_NET n53 5.830e-03
*DRIVER U199:Y
*CELL ivd1_hd
*C2_R1_C1 2.915e-03 7.370e-03 2.915e-03 
*LOADS
*RC U198:C 4.297e-05
*END

*R_NET n54 5.740e-03
*DRIVER U206:Y
*CELL nr4d1_hd
*C2_R1_C1 2.870e-03 7.370e-03 2.870e-03 
*LOADS
*RC U202:A 4.230e-05
*END

*R_NET n55 5.740e-03
*DRIVER U205:Y
*CELL nr4d1_hd
*C2_R1_C1 2.870e-03 7.370e-03 2.870e-03 
*LOADS
*RC U202:B 4.230e-05
*END

*R_NET n56 5.770e-03
*DRIVER U204:Y
*CELL nr4d1_hd
*C2_R1_C1 2.885e-03 7.370e-03 2.885e-03 
*LOADS
*RC U202:C 4.252e-05
*END

*R_NET n57 5.740e-03
*DRIVER U203:Y
*CELL nr4d1_hd
*C2_R1_C1 2.870e-03 7.370e-03 2.870e-03 
*LOADS
*RC U202:D 4.230e-05
*END

*R_NET n58 5.740e-03
*DRIVER U211:Y
*CELL nr4d1_hd
*C2_R1_C1 2.870e-03 7.370e-03 2.870e-03 
*LOADS
*RC U207:A 4.230e-05
*END

*R_NET n59 5.740e-03
*DRIVER U210:Y
*CELL nr4d1_hd
*C2_R1_C1 2.870e-03 7.370e-03 2.870e-03 
*LOADS
*RC U207:B 4.230e-05
*END

*R_NET n60 5.770e-03
*DRIVER U209:Y
*CELL nr4d1_hd
*C2_R1_C1 2.885e-03 7.370e-03 2.885e-03 
*LOADS
*RC U207:C 4.252e-05
*END

*R_NET n61 5.740e-03
*DRIVER U208:Y
*CELL nr4d1_hd
*C2_R1_C1 2.870e-03 7.370e-03 2.870e-03 
*LOADS
*RC U207:D 4.230e-05
*END

*R_NET n62 5.200e-03
*DRIVER U215:Y
*CELL ivd1_hd
*C2_R1_C1 2.600e-03 7.370e-03 2.600e-03 
*LOADS
*RC U173:A 3.832e-05
*END

*R_NET n63 1.710e-02
*DRIVER U169:Y
*CELL clknd2d1_hd
*C2_R1_C1 8.550e-03 9.460e-03 8.550e-03 
*LOADS
*RC U13:AN 1.618e-04
*RC U30:A 1.618e-04
*RC U213:B 1.618e-04
*END

*R_NET state\[2\] 4.550e-03
*DRIVER U161:Y
*CELL clknd2d1_hd
*C2_R1_C1 2.275e-03 7.370e-03 2.275e-03 
*LOADS
*RC clk_r_REG69_S3:D 3.353e-05
*END

*R_NET state\[1\] 4.550e-03
*DRIVER U160:Y
*CELL clknd2d1_hd
*C2_R1_C1 2.275e-03 7.370e-03 2.275e-03 
*LOADS
*RC clk_r_REG68_S3:D 3.353e-05
*END

*R_NET state\[0\] 4.550e-03
*DRIVER U187:Y
*CELL nd2bd1_hd
*C2_R1_C1 2.275e-03 7.370e-03 2.275e-03 
*LOADS
*RC clk_r_REG107_S3:D 3.353e-05
*END

*R_NET i_A\[30\] 1.453e-02
*DRIVER i_A\[30\]
*CELL fd4qd1_hd
*C2_R1_C1 7.265e-03 1.275e-02 7.265e-03 
*LOADS
*RC DP_OP_15_125_5858/clk_r_REG66_S1:D 1.853e-04
*END

*R_NET i_A\[29\] 1.453e-02
*DRIVER i_A\[29\]
*CELL fd4qd1_hd
*C2_R1_C1 7.265e-03 1.275e-02 7.265e-03 
*LOADS
*RC DP_OP_15_125_5858/clk_r_REG111_S1:D 1.853e-04
*END

*R_NET i_A\[28\] 1.453e-02
*DRIVER i_A\[28\]
*CELL fd4qd1_hd
*C2_R1_C1 7.265e-03 1.275e-02 7.265e-03 
*LOADS
*RC DP_OP_15_125_5858/clk_r_REG112_S1:D 1.853e-04
*END

*R_NET i_A\[27\] 1.453e-02
*DRIVER i_A\[27\]
*CELL fd4qd1_hd
*C2_R1_C1 7.265e-03 1.275e-02 7.265e-03 
*LOADS
*RC DP_OP_15_125_5858/clk_r_REG113_S1:D 1.853e-04
*END

*R_NET i_A\[26\] 1.453e-02
*DRIVER i_A\[26\]
*CELL fd4qd1_hd
*C2_R1_C1 7.265e-03 1.275e-02 7.265e-03 
*LOADS
*RC DP_OP_15_125_5858/clk_r_REG114_S1:D 1.853e-04
*END

*R_NET i_A\[25\] 1.453e-02
*DRIVER i_A\[25\]
*CELL fd4qd1_hd
*C2_R1_C1 7.265e-03 1.275e-02 7.265e-03 
*LOADS
*RC DP_OP_15_125_5858/clk_r_REG115_S1:D 1.853e-04
*END

*R_NET i_A\[24\] 1.453e-02
*DRIVER i_A\[24\]
*CELL fd4qd1_hd
*C2_R1_C1 7.265e-03 1.275e-02 7.265e-03 
*LOADS
*RC DP_OP_15_125_5858/clk_r_REG116_S1:D 1.853e-04
*END

*R_NET i_A\[23\] 1.453e-02
*DRIVER i_A\[23\]
*CELL fd4qd1_hd
*C2_R1_C1 7.265e-03 1.275e-02 7.265e-03 
*LOADS
*RC DP_OP_15_125_5858/clk_r_REG117_S1:D 1.853e-04
*END

*R_NET i_A\[22\] 1.453e-02
*DRIVER i_A\[22\]
*CELL fd4qd1_hd
*C2_R1_C1 7.265e-03 1.275e-02 7.265e-03 
*LOADS
*RC clk_r_REG118_S1:D 1.853e-04
*END

*R_NET i_A\[21\] 1.453e-02
*DRIVER i_A\[21\]
*CELL fd4qd1_hd
*C2_R1_C1 7.265e-03 1.275e-02 7.265e-03 
*LOADS
*RC clk_r_REG119_S1:D 1.853e-04
*END

*R_NET i_A\[20\] 1.453e-02
*DRIVER i_A\[20\]
*CELL fd4qd1_hd
*C2_R1_C1 7.265e-03 1.275e-02 7.265e-03 
*LOADS
*RC clk_r_REG120_S1:D 1.853e-04
*END

*R_NET i_A\[19\] 1.453e-02
*DRIVER i_A\[19\]
*CELL fd4qd1_hd
*C2_R1_C1 7.265e-03 1.275e-02 7.265e-03 
*LOADS
*RC clk_r_REG121_S1:D 1.853e-04
*END

*R_NET i_A\[18\] 1.453e-02
*DRIVER i_A\[18\]
*CELL fd4qd1_hd
*C2_R1_C1 7.265e-03 1.275e-02 7.265e-03 
*LOADS
*RC clk_r_REG122_S1:D 1.853e-04
*END

*R_NET i_A\[17\] 1.453e-02
*DRIVER i_A\[17\]
*CELL fd4qd1_hd
*C2_R1_C1 7.265e-03 1.275e-02 7.265e-03 
*LOADS
*RC clk_r_REG123_S1:D 1.853e-04
*END

*R_NET i_A\[16\] 1.453e-02
*DRIVER i_A\[16\]
*CELL fd4qd1_hd
*C2_R1_C1 7.265e-03 1.275e-02 7.265e-03 
*LOADS
*RC clk_r_REG124_S1:D 1.853e-04
*END

*R_NET i_A\[15\] 1.453e-02
*DRIVER i_A\[15\]
*CELL fd4qd1_hd
*C2_R1_C1 7.265e-03 1.275e-02 7.265e-03 
*LOADS
*RC clk_r_REG125_S1:D 1.853e-04
*END

*R_NET i_A\[14\] 1.453e-02
*DRIVER i_A\[14\]
*CELL fd4qd1_hd
*C2_R1_C1 7.265e-03 1.275e-02 7.265e-03 
*LOADS
*RC clk_r_REG126_S1:D 1.853e-04
*END

*R_NET i_A\[13\] 1.453e-02
*DRIVER i_A\[13\]
*CELL fd4qd1_hd
*C2_R1_C1 7.265e-03 1.275e-02 7.265e-03 
*LOADS
*RC clk_r_REG127_S1:D 1.853e-04
*END

*R_NET i_A\[12\] 1.453e-02
*DRIVER i_A\[12\]
*CELL fd4qd1_hd
*C2_R1_C1 7.265e-03 1.275e-02 7.265e-03 
*LOADS
*RC clk_r_REG128_S1:D 1.853e-04
*END

*R_NET i_A\[11\] 1.453e-02
*DRIVER i_A\[11\]
*CELL fd4qd1_hd
*C2_R1_C1 7.265e-03 1.275e-02 7.265e-03 
*LOADS
*RC clk_r_REG129_S1:D 1.853e-04
*END

*R_NET i_A\[10\] 1.453e-02
*DRIVER i_A\[10\]
*CELL fd4qd1_hd
*C2_R1_C1 7.265e-03 1.275e-02 7.265e-03 
*LOADS
*RC clk_r_REG130_S1:D 1.853e-04
*END

*R_NET i_A\[9\] 1.453e-02
*DRIVER i_A\[9\]
*CELL fd4qd1_hd
*C2_R1_C1 7.265e-03 1.275e-02 7.265e-03 
*LOADS
*RC clk_r_REG131_S1:D 1.853e-04
*END

*R_NET i_A\[8\] 1.453e-02
*DRIVER i_A\[8\]
*CELL fd4qd1_hd