*SPEF "IEEE 1481-1999"
*DESIGN "converter_f2i"
*DATE "Wed May  6 15:29:54 2020"
*VENDOR "SYNOPSYS INC"
*PROGRAM "Synopsys Design Compiler cmos"
*VERSION "F-2011.09-SP5-3"
*DESIGN_FLOW "SYNTHESIS"
*DIVIDER /
*DELIMITER :
*BUS_DELIMITER []
*T_UNIT 1.0 NS
*C_UNIT 1.0 PF
*R_UNIT 1.0 KOHM
*L_UNIT 1.0 HENRY

*PORTS

i_A\[31\] I *L 0.000e+00 *S 0.000e+00 0.000e+00 
i_A\[30\] I *L 0.000e+00 *S 0.000e+00 0.000e+00 
i_A\[29\] I *L 0.000e+00 *S 0.000e+00 0.000e+00 
i_A\[28\] I *L 0.000e+00 *S 0.000e+00 0.000e+00 
i_A\[27\] I *L 0.000e+00 *S 0.000e+00 0.000e+00 
i_A\[26\] I *L 0.000e+00 *S 0.000e+00 0.000e+00 
i_A\[25\] I *L 0.000e+00 *S 0.000e+00 0.000e+00 
i_A\[24\] I *L 0.000e+00 *S 0.000e+00 0.000e+00 
i_A\[23\] I *L 0.000e+00 *S 0.000e+00 0.000e+00 
i_A\[22\] I *L 0.000e+00 *S 0.000e+00 0.000e+00 
i_A\[21\] I *L 0.000e+00 *S 0.000e+00 0.000e+00 
i_A\[20\] I *L 0.000e+00 *S 0.000e+00 0.000e+00 
i_A\[19\] I *L 0.000e+00 *S 0.000e+00 0.000e+00 
i_A\[18\] I *L 0.000e+00 *S 0.000e+00 0.000e+00 
i_A\[17\] I *L 0.000e+00 *S 0.000e+00 0.000e+00 
i_A\[16\] I *L 0.000e+00 *S 0.000e+00 0.000e+00 
i_A\[15\] I *L 0.000e+00 *S 0.000e+00 0.000e+00 
i_A\[14\] I *L 0.000e+00 *S 0.000e+00 0.000e+00 
i_A\[13\] I *L 0.000e+00 *S 0.000e+00 0.000e+00 
i_A\[12\] I *L 0.000e+00 *S 0.000e+00 0.000e+00 
i_A\[11\] I *L 0.000e+00 *S 0.000e+00 0.000e+00 
i_A\[10\] I *L 0.000e+00 *S 0.000e+00 0.000e+00 
i_A\[9\] I *L 0.000e+00 *S 0.000e+00 0.000e+00 
i_A\[8\] I *L 0.000e+00 *S 0.000e+00 0.000e+00 
i_A\[7\] I *L 0.000e+00 *S 0.000e+00 0.000e+00 
i_A\[6\] I *L 0.000e+00 *S 0.000e+00 0.000e+00 
i_A\[5\] I *L 0.000e+00 *S 0.000e+00 0.000e+00 
i_A\[4\] I *L 0.000e+00 *S 0.000e+00 0.000e+00 
i_A\[3\] I *L 0.000e+00 *S 0.000e+00 0.000e+00 
i_A\[2\] I *L 0.000e+00 *S 0.000e+00 0.000e+00 
i_A\[1\] I *L 0.000e+00 *S 0.000e+00 0.000e+00 
i_A\[0\] I *L 0.000e+00 *S 0.000e+00 0.000e+00 
i_A_STB I *L 0.000e+00 *S 0.000e+00 0.000e+00 
o_A_ACK O *L 1.035e-02 *S 2.020e-01 1.612e-01 
o_Z\[31\] O *L 1.035e-02 *S 1.239e-01 9.944e-02 
o_Z\[30\] O *L 1.035e-02 *S 1.239e-01 9.944e-02 
o_Z\[29\] O *L 1.035e-02 *S 1.239e-01 9.944e-02 
o_Z\[28\] O *L 1.035e-02 *S 1.239e-01 9.944e-02 
o_Z\[27\] O *L 1.035e-02 *S 1.239e-01 9.944e-02 
o_Z\[26\] O *L 1.035e-02 *S 1.239e-01 9.944e-02 
o_Z\[25\] O *L 1.035e-02 *S 1.239e-01 9.944e-02 
o_Z\[24\] O *L 1.035e-02 *S 1.239e-01 9.944e-02 
o_Z\[23\] O *L 1.035e-02 *S 1.239e-01 9.944e-02 
o_Z\[22\] O *L 1.035e-02 *S 1.239e-01 9.944e-02 
o_Z\[21\] O *L 1.035e-02 *S 1.239e-01 9.944e-02 
o_Z\[20\] O *L 1.035e-02 *S 1.239e-01 9.944e-02 
o_Z\[19\] O *L 1.035e-02 *S 1.239e-01 9.944e-02 
o_Z\[18\] O *L 1.035e-02 *S 1.239e-01 9.944e-02 
o_Z\[17\] O *L 1.035e-02 *S 1.239e-01 9.944e-02 
o_Z\[16\] O *L 1.035e-02 *S 1.239e-01 9.944e-02 
o_Z\[15\] O *L 1.035e-02 *S 1.239e-01 9.944e-02 
o_Z\[14\] O *L 1.035e-02 *S 1.239e-01 9.944e-02 
o_Z\[13\] O *L 1.035e-02 *S 1.239e-01 9.944e-02 
o_Z\[12\] O *L 1.035e-02 *S 1.239e-01 9.944e-02 
o_Z\[11\] O *L 1.035e-02 *S 1.239e-01 9.944e-02 
o_Z\[10\] O *L 1.035e-02 *S 1.239e-01 9.944e-02 
o_Z\[9\] O *L 1.035e-02 *S 1.239e-01 9.944e-02 
o_Z\[8\] O *L 1.035e-02 *S 1.239e-01 9.944e-02 
o_Z\[7\] O *L 1.035e-02 *S 1.239e-01 9.944e-02 
o_Z\[6\] O *L 1.035e-02 *S 1.239e-01 9.944e-02 
o_Z\[5\] O *L 1.035e-02 *S 1.239e-01 9.944e-02 
o_Z\[4\] O *L 1.035e-02 *S 1.239e-01 9.944e-02 
o_Z\[3\] O *L 1.035e-02 *S 1.239e-01 9.944e-02 
o_Z\[2\] O *L 1.035e-02 *S 1.239e-01 9.944e-02 
o_Z\[1\] O *L 1.035e-02 *S 1.239e-01 9.944e-02 
o_Z\[0\] O *L 1.035e-02 *S 1.239e-01 9.944e-02 
o_Z_STB O *L 1.035e-02 *S 2.090e-01 1.655e-01 
i_Z_ACK I *L 0.000e+00 *S 0.000e+00 0.000e+00 
i_CLK I *L 0.000e+00 *S 0.000e+00 0.000e+00 
i_RST I *L 0.000e+00 *S 0.000e+00 0.000e+00 

*R_NET i_A\[31\] 4.500e-03
*DRIVER i_A\[31\]
*CELL NULL
*C2_R1_C1 2.250e-03 7.370e-03 2.250e-03 
*LOADS
*RC a_reg_31_:D 3.316e-05
*END

*R_NET i_A\[30\] 4.500e-03
*DRIVER i_A\[30\]
*CELL NULL
*C2_R1_C1 2.250e-03 7.370e-03 2.250e-03 
*LOADS
*RC a_reg_30_:D 3.316e-05
*END

*R_NET i_A\[29\] 4.500e-03
*DRIVER i_A\[29\]
*CELL NULL
*C2_R1_C1 2.250e-03 7.370e-03 2.250e-03 
*LOADS
*RC a_reg_29_:D 3.316e-05
*END

*R_NET i_A\[28\] 4.500e-03
*DRIVER i_A\[28\]
*CELL NULL
*C2_R1_C1 2.250e-03 7.370e-03 2.250e-03 
*LOADS
*RC a_reg_28_:D 3.316e-05
*END

*R_NET i_A\[27\] 4.500e-03
*DRIVER i_A\[27\]
*CELL NULL
*C2_R1_C1 2.250e-03 7.370e-03 2.250e-03 
*LOADS
*RC a_reg_27_:D 3.316e-05
*END

*R_NET i_A\[26\] 4.500e-03
*DRIVER i_A\[26\]
*CELL NULL
*C2_R1_C1 2.250e-03 7.370e-03 2.250e-03 
*LOADS
*RC a_reg_26_:D 3.316e-05
*END

*R_NET i_A\[25\] 4.500e-03
*DRIVER i_A\[25\]
*CELL NULL
*C2_R1_C1 2.250e-03 7.370e-03 2.250e-03 
*LOADS
*RC a_reg_25_:D 3.316e-05
*END

*R_NET i_A\[24\] 4.500e-03
*DRIVER i_A\[24\]
*CELL NULL
*C2_R1_C1 2.250e-03 7.370e-03 2.250e-03 
*LOADS
*RC a_reg_24_:D 3.316e-05
*END

*R_NET i_A\[23\] 4.500e-03
*DRIVER i_A\[23\]
*CELL NULL
*C2_R1_C1 2.250e-03 7.370e-03 2.250e-03 
*LOADS
*RC a_reg_23_:D 3.316e-05
*END

*R_NET i_A\[22\] 4.500e-03
*DRIVER i_A\[22\]
*CELL NULL
*C2_R1_C1 2.250e-03 7.370e-03 2.250e-03 
*LOADS
*RC a_reg_22_:D 3.316e-05
*END

*R_NET i_A\[21\] 4.500e-03
*DRIVER i_A\[21\]
*CELL NULL
*C2_R1_C1 2.250e-03 7.370e-03 2.250e-03 
*LOADS
*RC a_reg_21_:D 3.316e-05
*END

*R_NET i_A\[20\] 4.500e-03
*DRIVER i_A\[20\]
*CELL NULL
*C2_R1_C1 2.250e-03 7.370e-03 2.250e-03 
*LOADS
*RC a_reg_20_:D 3.316e-05
*END

*R_NET i_A\[19\] 4.500e-03
*DRIVER i_A\[19\]
*CELL NULL
*C2_R1_C1 2.250e-03 7.370e-03 2.250e-03 
*LOADS
*RC a_reg_19_:D 3.316e-05
*END

*R_NET i_A\[18\] 4.500e-03
*DRIVER i_A\[18\]
*CELL NULL
*C2_R1_C1 2.250e-03 7.370e-03 2.250e-03 
*LOADS
*RC a_reg_18_:D 3.316e-05
*END

*R_NET i_A\[17\] 4.500e-03
*DRIVER i_A\[17\]
*CELL NULL
*C2_R1_C1 2.250e-03 7.370e-03 2.250e-03 
*LOADS
*RC a_reg_17_:D 3.316e-05
*END

*R_NET i_A\[16\] 4.500e-03
*DRIVER i_A\[16\]
*CELL NULL
*C2_R1_C1 2.250e-03 7.370e-03 2.250e-03 
*LOADS
*RC a_reg_16_:D 3.316e-05
*END

*R_NET i_A\[15\] 4.500e-03
*DRIVER i_A\[15\]
*CELL NULL
*C2_R1_C1 2.250e-03 7.370e-03 2.250e-03 
*LOADS
*RC a_reg_15_:D 3.316e-05
*END

*R_NET i_A\[14\] 4.500e-03
*DRIVER i_A\[14\]
*CELL NULL
*C2_R1_C1 2.250e-03 7.370e-03 2.250e-03 
*LOADS
*RC a_reg_14_:D 3.316e-05
*END

*R_NET i_A\[13\] 4.500e-03
*DRIVER i_A\[13\]
*CELL NULL
*C2_R1_C1 2.250e-03 7.370e-03 2.250e-03 
*LOADS
*RC a_reg_13_:D 3.316e-05
*END

*R_NET i_A\[12\] 4.500e-03
*DRIVER i_A\[12\]
*CELL NULL
*C2_R1_C1 2.250e-03 7.370e-03 2.250e-03 
*LOADS
*RC a_reg_12_:D 3.316e-05
*END

*R_NET i_A\[11\] 4.500e-03
*DRIVER i_A\[11\]
*CELL NULL
*C2_R1_C1 2.250e-03 7.370e-03 2.250e-03 
*LOADS
*RC a_reg_11_:D 3.316e-05
*END

*R_NET i_A\[10\] 4.500e-03
*DRIVER i_A\[10\]
*CELL NULL
*C2_R1_C1 2.250e-03 7.370e-03 2.250e-03 
*LOADS
*RC a_reg_10_:D 3.316e-05
*END

*R_NET i_A\[9\] 4.500e-03
*DRIVER i_A\[9\]
*CELL NULL
*C2_R1_C1 2.250e-03 7.370e-03 2.250e-03 
*LOADS
*RC a_reg_9_:D 3.316e-05
*END

*R_NET i_A\[8\] 4.500e-03
*DRIVER i_A\[8\]
*CELL NULL
*C2_R1_C1 2.250e-03 7.370e-03 2.250e-03 
*LOADS
*RC a_reg_8_:D 3.316e-05
*END

*R_NET i_A\[7\] 4.500e-03
*DRIVER i_A\[7\]
*CELL NULL
*C2_R1_C1 2.250e-03 7.370e-03 2.250e-03 
*LOADS
*RC a_reg_7_:D 3.316e-05
*END

*R_NET i_A\[6\] 4.500e-03
*DRIVER i_A\[6\]
*CELL NULL
*C2_R1_C1 2.250e-03 7.370e-03 2.250e-03 
*LOADS
*RC a_reg_6_:D 3.316e-05
*END

*R_NET i_A\[5\] 4.500e-03
*DRIVER i_A\[5\]
*CELL NULL
*C2_R1_C1 2.250e-03 7.370e-03 2.250e-03 
*LOADS
*RC a_reg_5_:D 3.316e-05
*END

*R_NET i_A\[4\] 4.500e-03
*DRIVER i_A\[4\]
*CELL NULL
*C2_R1_C1 2.250e-03 7.370e-03 2.250e-03 
*LOADS
*RC a_reg_4_:D 3.316e-05
*END

*R_NET i_A\[3\] 4.500e-03
*DRIVER i_A\[3\]
*CELL NULL
*C2_R1_C1 2.250e-03 7.370e-03 2.250e-03 
*LOADS
*RC a_reg_3_:D 3.316e-05
*END

*R_NET i_A\[2\] 4.500e-03
*DRIVER i_A\[2\]
*CELL NULL
*C2_R1_C1 2.250e-03 7.370e-03 2.250e-03 
*LOADS
*RC a_reg_2_:D 3.316e-05
*END

*R_NET i_A\[1\] 4.500e-03
*DRIVER i_A\[1\]
*CELL NULL
*C2_R1_C1 2.250e-03 7.370e-03 2.250e-03 
*LOADS
*RC a_reg_1_:D 3.316e-05
*END

*R_NET i_A\[0\] 4.500e-03
*DRIVER i_A\[0\]
*CELL NULL
*C2_R1_C1 2.250e-03 7.370e-03 2.250e-03 
*LOADS
*RC a_reg_0_:D 3.316e-05
*END

*R_NET i_A_STB 4.720e-03
*DRIVER i_A_STB
*CELL NULL
*C2_R1_C1 2.360e-03 7.370e-03 2.360e-03 
*LOADS
*RC U343:B 3.479e-05
*END

*R_NET o_A_ACK 2.300e-02
*DRIVER o_A_ACK_reg:Q
*CELL fd1qd1_hd
*C2_R1_C1 1.150e-02 9.460e-03 1.150e-02 
*LOADS
*RC U343:A 2.176e-04
*RC U599:A 2.176e-04
*RC o_A_ACK 2.176e-04
*END

*R_NET o_Z\[31\] 1.350e-02
*DRIVER o_Z_reg_31_:Q
*CELL fd1eqd1_hd
*C2_R1_C1 6.750e-03 7.370e-03 6.750e-03 
*LOADS
*RC o_Z\[31\] 9.950e-05
*END

*R_NET o_Z\[30\] 1.350e-02
*DRIVER o_Z_reg_30_:Q
*CELL fd1eqd1_hd
*C2_R1_C1 6.750e-03 7.370e-03 6.750e-03 
*LOADS
*RC o_Z\[30\] 9.950e-05
*END

*R_NET o_Z\[29\] 1.350e-02
*DRIVER o_Z_reg_29_:Q
*CELL fd1eqd1_hd
*C2_R1_C1 6.750e-03 7.370e-03 6.750e-03 
*LOADS
*RC o_Z\[29\] 9.950e-05
*END

*R_NET o_Z\[28\] 1.350e-02
*DRIVER o_Z_reg_28_:Q
*CELL fd1eqd1_hd
*C2_R1_C1 6.750e-03 7.370e-03 6.750e-03 
*LOADS
*RC o_Z\[28\] 9.950e-05
*END

*R_NET o_Z\[27\] 1.350e-02
*DRIVER o_Z_reg_27_:Q
*CELL fd1eqd1_hd
*C2_R1_C1 6.750e-03 7.370e-03 6.750e-03 
*LOADS
*RC o_Z\[27\] 9.950e-05
*END

*R_NET o_Z\[26\] 1.350e-02
*DRIVER o_Z_reg_26_:Q
*CELL fd1eqd1_hd
*C2_R1_C1 6.750e-03 7.370e-03 6.750e-03 
*LOADS
*RC o_Z\[26\] 9.950e-05
*END

*R_NET o_Z\[25\] 1.350e-02
*DRIVER o_Z_reg_25_:Q
*CELL fd1eqd1_hd
*C2_R1_C1 6.750e-03 7.370e-03 6.750e-03 
*LOADS
*RC o_Z\[25\] 9.950e-05
*END

*R_NET o_Z\[24\] 1.350e-02
*DRIVER o_Z_reg_24_:Q
*CELL fd1eqd1_hd
*C2_R1_C1 6.750e-03 7.370e-03 6.750e-03 
*LOADS
*RC o_Z\[24\] 9.950e-05
*END

*R_NET o_Z\[23\] 1.350e-02
*DRIVER o_Z_reg_23_:Q
*CELL fd1eqd1_hd
*C2_R1_C1 6.750e-03 7.370e-03 6.750e-03 
*LOADS
*RC o_Z\[23\] 9.950e-05
*END

*R_NET o_Z\[22\] 1.350e-02
*DRIVER o_Z_reg_22_:Q
*CELL fd1eqd1_hd
*C2_R1_C1 6.750e-03 7.370e-03 6.750e-03 
*LOADS
*RC o_Z\[22\] 9.950e-05
*END

*R_NET o_Z\[21\] 1.350e-02
*DRIVER o_Z_reg_21_:Q
*CELL fd1eqd1_hd
*C2_R1_C1 6.750e-03 7.370e-03 6.750e-03 
*LOADS
*RC o_Z\[21\] 9.950e-05
*END

*R_NET o_Z\[20\] 1.350e-02
*DRIVER o_Z_reg_20_:Q
*CELL fd1eqd1_hd
*C2_R1_C1 6.750e-03 7.370e-03 6.750e-03 
*LOADS
*RC o_Z\[20\] 9.950e-05
*END

*R_NET o_Z\[19\] 1.350e-02
*DRIVER o_Z_reg_19_:Q
*CELL fd1eqd1_hd
*C2_R1_C1 6.750e-03 7.370e-03 6.750e-03 
*LOADS
*RC o_Z\[19\] 9.950e-05
*END

*R_NET o_Z\[18\] 1.350e-02
*DRIVER o_Z_reg_18_:Q
*CELL fd1eqd1_hd
*C2_R1_C1 6.750e-03 7.370e-03 6.750e-03 
*LOADS
*RC o_Z\[18\] 9.950e-05
*END

*R_NET o_Z\[17\] 1.350e-02
*DRIVER o_Z_reg_17_:Q
*CELL fd1eqd1_hd
*C2_R1_C1 6.750e-03 7.370e-03 6.750e-03 
*LOADS
*RC o_Z\[17\] 9.950e-05
*END

*R_NET o_Z\[16\] 1.350e-02
*DRIVER o_Z_reg_16_:Q
*CELL fd1eqd1_hd
*C2_R1_C1 6.750e-03 7.370e-03 6.750e-03 
*LOADS
*RC o_Z\[16\] 9.950e-05
*END

*R_NET o_Z\[15\] 1.350e-02
*DRIVER o_Z_reg_15_:Q
*CELL fd1eqd1_hd
*C2_R1_C1 6.750e-03 7.370e-03 6.750e-03 
*LOADS
*RC o_Z\[15\] 9.950e-05
*END

*R_NET o_Z\[14\] 1.350e-02
*DRIVER o_Z_reg_14_:Q
*CELL fd1eqd1_hd
*C2_R1_C1 6.750e-03 7.370e-03 6.750e-03 
*LOADS
*RC o_Z\[14\] 9.950e-05
*END

*R_NET o_Z\[13\] 1.350e-02
*DRIVER o_Z_reg_13_:Q
*CELL fd1eqd1_hd
*C2_R1_C1 6.750e-03 7.370e-03 6.750e-03 
*LOADS
*RC o_Z\[13\] 9.950e-05
*END

*R_NET o_Z\[12\] 1.350e-02
*DRIVER o_Z_reg_12_:Q
*CELL fd1eqd1_hd
*C2_R1_C1 6.750e-03 7.370e-03 6.750e-03 
*LOADS
*RC o_Z\[12\] 9.950e-05
*END

*R_NET o_Z\[11\] 1.350e-02
*DRIVER o_Z_reg_11_:Q
*CELL fd1eqd1_hd
*C2_R1_C1 6.750e-03 7.370e-03 6.750e-03 
*LOADS
*RC o_Z\[11\] 9.950e-05
*END

*R_NET o_Z\[10\] 1.350e-02
*DRIVER o_Z_reg_10_:Q
*CELL fd1eqd1_hd
*C2_R1_C1 6.750e-03 7.370e-03 6.750e-03 
*LOADS
*RC o_Z\[10\] 9.950e-05
*END

*R_NET o_Z\[9\] 1.350e-02
*DRIVER o_Z_reg_9_:Q
*CELL fd1eqd1_hd
*C2_R1_C1 6.750e-03 7.370e-03 6.750e-03 
*LOADS
*RC o_Z\[9\] 9.950e-05
*END

*R_NET o_Z\[8\] 1.350e-02
*DRIVER o_Z_reg_8_:Q
*CELL fd1eqd1_hd
*C2_R1_C1 6.750e-03 7.370e-03 6.750e-03 
*LOADS
*RC o_Z\[8\] 9.950e-05
*END

*R_NET o_Z\[7\] 1.350e-02
*DRIVER o_Z_reg_7_:Q
*CELL fd1eqd1_hd
*C2_R1_C1 6.750e-03 7.370e-03 6.750e-03 
*LOADS
*RC o_Z\[7\] 9.950e-05
*END

*R_NET o_Z\[6\] 1.350e-02
*DRIVER o_Z_reg_6_:Q
*CELL fd1eqd1_hd
*C2_R1_C1 6.750e-03 7.370e-03 6.750e-03 
*LOADS
*RC o_Z\[6\] 9.950e-05
*END

*R_NET o_Z\[5\] 1.350e-02
*DRIVER o_Z_reg_5_:Q
*CELL fd1eqd1_hd
*C2_R1_C1 6.750e-03 7.370e-03 6.750e-03 
*LOADS
*RC o_Z\[5\] 9.950e-05
*END

*R_NET o_Z\[4\] 1.350e-02
*DRIVER o_Z_reg_4_:Q
*CELL fd1eqd1_hd
*C2_R1_C1 6.750e-03 7.370e-03 6.750e-03 
*LOADS
*RC o_Z\[4\] 9.950e-05
*END

*R_NET o_Z\[3\] 1.350e-02
*DRIVER o_Z_reg_3_:Q
*CELL fd1eqd1_hd
*C2_R1_C1 6.750e-03 7.370e-03 6.750e-03 
*LOADS
*RC o_Z\[3\] 9.950e-05
*END

*R_NET o_Z\[2\] 1.350e-02
*DRIVER o_Z_reg_2_:Q
*CELL fd1eqd1_hd
*C2_R1_C1 6.750e-03 7.370e-03 6.750e-03 
*LOADS
*RC o_Z\[2\] 9.950e-05
*END

*R_NET o_Z\[1\] 1.350e-02
*DRIVER o_Z_reg_1_:Q
*CELL fd1eqd1_hd
*C2_R1_C1 6.750e-03 7.370e-03 6.750e-03 
*LOADS
*RC o_Z\[1\] 9.950e-05
*END

*R_NET o_Z\[0\] 1.350e-02
*DRIVER o_Z_reg_0_:Q
*CELL fd1eqd1_hd
*C2_R1_C1 6.750e-03 7.370e-03 6.750e-03 
*LOADS
*RC o_Z\[0\] 9.950e-05
*END

*R_NET o_Z_STB 2.388e-02
*DRIVER o_Z_STB_reg:Q
*CELL fd1qd1_hd
*C2_R1_C1 1.194e-02 9.460e-03 1.194e-02 
*LOADS
*RC U235:A 2.259e-04
*RC U570:A 2.259e-04
*RC o_Z_STB 2.259e-04
*END

*R_NET i_Z_ACK 5.190e-03
*DRIVER i_Z_ACK
*CELL NULL
*C2_R1_C1 2.595e-03 7.370e-03 2.595e-03 
*LOADS
*RC U235:B 3.825e-05
*END

*R_NET i_CLK 8.730e-01
*DRIVER i_CLK
*CELL NULL
*C2_R1_C1 4.365e-01 0.000e+00 4.365e-01 
*LOADS
*RC a_reg_5_:CK 0.000e+00
*RC o_Z_STB_reg:CK 0.000e+00
*RC o_A_ACK_reg:CK 0.000e+00
*RC a_m_reg_31_:CK 0.000e+00
*RC state_reg_2_:CK 0.000e+00
*RC state_reg_0_:CK 0.000e+00
*RC a_m_reg_7_:CK 0.000e+00
*RC state_reg_1_:CK 0.000e+00
*RC a_m_reg_1_:CK 0.000e+00
*RC a_m_reg_22_:CK 0.000e+00
*RC a_m_reg_18_:CK 0.000e+00
*RC a_m_reg_6_:CK 0.000e+00
*RC a_m_reg_5_:CK 0.000e+00
*RC a_m_reg_4_:CK 0.000e+00
*RC a_m_reg_3_:CK 0.000e+00
*RC a_m_reg_2_:CK 0.000e+00
*RC a_m_reg_0_:CK 0.000e+00
*RC a_m_reg_12_:CK 0.000e+00
*RC a_m_reg_9_:CK 0.000e+00
*RC a_m_reg_23_:CK 0.000e+00
*RC a_m_reg_21_:CK 0.000e+00
*RC a_m_reg_20_:CK 0.000e+00
*RC a_m_reg_19_:CK 0.000e+00
*RC a_m_reg_11_:CK 0.000e+00
*RC a_m_reg_10_:CK 0.000e+00
*RC a_m_reg_8_:CK 0.000e+00
*RC a_m_reg_30_:CK 0.000e+00
*RC a_m_reg_29_:CK 0.000e+00
*RC a_m_reg_28_:CK 0.000e+00
*RC a_m_reg_27_:CK 0.000e+00
*RC a_m_reg_26_:CK 0.000e+00
*RC a_m_reg_25_:CK 0.000e+00
*RC a_m_reg_24_:CK 0.000e+00
*RC a_m_reg_17_:CK 0.000e+00
*RC a_m_reg_16_:CK 0.000e+00
*RC a_m_reg_15_:CK 0.000e+00
*RC a_m_reg_14_:CK 0.000e+00
*RC a_m_reg_13_:CK 0.000e+00
*RC z_reg_10_:CK 0.000e+00
*RC z_reg_11_:CK 0.000e+00
*RC z_reg_12_:CK 0.000e+00
*RC z_reg_9_:CK 0.000e+00
*RC z_reg_24_:CK 0.000e+00
*RC z_reg_23_:CK 0.000e+00
*RC z_reg_22_:CK 0.000e+00
*RC z_reg_21_:CK 0.000e+00
*RC z_reg_20_:CK 0.000e+00
*RC z_reg_19_:CK 0.000e+00
*RC z_reg_0_:CK 0.000e+00
*RC z_reg_13_:CK 0.000e+00
*RC z_reg_3_:CK 0.000e+00
*RC z_reg_7_:CK 0.000e+00
*RC z_reg_8_:CK 0.000e+00
*RC z_reg_29_:CK 0.000e+00
*RC z_reg_28_:CK 0.000e+00
*RC z_reg_27_:CK 0.000e+00
*RC z_reg_26_:CK 0.000e+00
*RC z_reg_25_:CK 0.000e+00
*RC z_reg_2_:CK 0.000e+00
*RC z_reg_6_:CK 0.000e+00
*RC z_reg_5_:CK 0.000e+00
*RC z_reg_4_:CK 0.000e+00
*RC z_reg_15_:CK 0.000e+00
*RC z_reg_14_:CK 0.000e+00
*RC z_reg_30_:CK 0.000e+00
*RC a_e_reg_1_:CK 0.000e+00
*RC a_e_reg_7_:CK 0.000e+00
*RC a_e_reg_8_:CK 0.000e+00
*RC a_e_reg_2_:CK 0.000e+00
*RC a_e_reg_4_:CK 0.000e+00
*RC a_e_reg_3_:CK 0.000e+00
*RC a_e_reg_5_:CK 0.000e+00
*RC a_e_reg_0_:CK 0.000e+00
*RC a_e_reg_6_:CK 0.000e+00
*RC a_reg_7_:CK 0.000e+00
*RC a_reg_8_:CK 0.000e+00
*RC a_reg_9_:CK 0.000e+00
*RC a_reg_10_:CK 0.000e+00
*RC a_reg_11_:CK 0.000e+00
*RC a_reg_17_:CK 0.000e+00
*RC a_reg_18_:CK 0.000e+00
*RC a_reg_19_:CK 0.000e+00
*RC a_reg_20_:CK 0.000e+00
*RC a_reg_21_:CK 0.000e+00
*RC a_reg_22_:CK 0.000e+00
*RC a_reg_26_:CK 0.000e+00
*RC a_reg_29_:CK 0.000e+00
*RC a_reg_30_:CK 0.000e+00
*RC a_reg_0_:CK 0.000e+00
*RC a_reg_1_:CK 0.000e+00
*RC a_reg_2_:CK 0.000e+00
*RC a_reg_3_:CK 0.000e+00
*RC a_reg_4_:CK 0.000e+00
*RC a_reg_31_:CK 0.000e+00
*RC a_reg_16_:CK 0.000e+00
*RC a_reg_23_:CK 0.000e+00
*RC a_reg_24_:CK 0.000e+00
*RC a_reg_25_:CK 0.000e+00
*RC o_Z_reg_0_:CK 0.000e+00
*RC o_Z_reg_1_:CK 0.000e+00
*RC o_Z_reg_8_:CK 0.000e+00
*RC o_Z_reg_9_:CK 0.000e+00
*RC o_Z_reg_10_:CK 0.000e+00
*RC a_reg_12_:CK 0.000e+00
*RC a_reg_13_:CK 0.000e+00
*RC a_reg_27_:CK 0.000e+00
*RC a_reg_28_:CK 0.000e+00
*RC a_s_reg:CK 0.000e+00
*RC o_Z_reg_14_:CK 0.000e+00
*RC o_Z_reg_15_:CK 0.000e+00
*RC o_Z_reg_16_:CK 0.000e+00
*RC o_Z_reg_17_:CK 0.000e+00
*RC o_Z_reg_18_:CK 0.000e+00
*RC o_Z_reg_19_:CK 0.000e+00
*RC o_Z_reg_20_:CK 0.000e+00
*RC o_Z_reg_21_:CK 0.000e+00
*RC o_Z_reg_22_:CK 0.000e+00
*RC o_Z_reg_23_:CK 0.000e+00
*RC o_Z_reg_24_:CK 0.000e+00
*RC o_Z_reg_25_:CK 0.000e+00
*RC o_Z_reg_26_:CK 0.000e+00
*RC o_Z_reg_27_:CK 0.000e+00
*RC o_Z_reg_28_:CK 0.000e+00
*RC o_Z_reg_29_:CK 0.000e+00
*RC o_Z_reg_30_:CK 0.000e+00
*RC o_Z_reg_31_:CK 0.000e+00
*RC o_Z_reg_6_:CK 0.000e+00
*RC o_Z_reg_7_:CK 0.000e+00
*RC o_Z_reg_11_:CK 0.000e+00
*RC o_Z_reg_12_:CK 0.000e+00
*RC o_Z_reg_13_:CK 0.000e+00
*RC a_reg_6_:CK 0.000e+00
*RC a_reg_14_:CK 0.000e+00
*RC a_reg_15_:CK 0.000e+00
*RC o_Z_reg_2_:CK 0.000e+00
*RC o_Z_reg_3_:CK 0.000e+00
*RC o_Z_reg_4_:CK 0.000e+00
*RC o_Z_reg_5_:CK 0.000e+00
*RC z_reg_31_:CK 0.000e+00
*RC z_reg_1_:CK 0.000e+00
*RC z_reg_16_:CK 0.000e+00
*RC z_reg_17_:CK 0.000e+00
*RC z_reg_18_:CK 0.000e+00
*END

*R_NET state\[2\] 1.560e-02
*DRIVER state_reg_2_:Q
*CELL fd1qd1_hd
*C2_R1_C1 7.800e-03 9.460e-03 7.800e-03 
*LOADS
*RC U236:A 1.476e-04
*RC U416:A 1.476e-04
*RC U419:A 1.476e-04
*END

*R_NET state\[1\] 2.204e-02
*DRIVER state_reg_1_:Q
*CELL fd1qd1_hd
*C2_R1_C1 1.102e-02 1.094e-02 1.102e-02 
*LOADS
*RC U224:B 2.411e-04
*RC U272:A 2.411e-04
*RC U418:A 2.411e-04
*RC U419:B 2.411e-04
*END

*R_NET state\[0\] 3.129e-02
*DRIVER state_reg_0_:Q
*CELL fd1qd1_hd
*C2_R1_C1 1.565e-02 1.674e-02 1.565e-02 
*LOADS
*RC U239:A 5.238e-04
*RC U289:A 5.238e-04
*RC U318:A 5.238e-04
*RC U415:A 5.238e-04
*RC U418:B 5.238e-04
*RC U185:A 5.238e-04
*END

*R_NET a\[31\] 4.500e-03
*DRIVER a_reg_31_:Q
*CELL fd1eqd1_hd
*C2_R1_C1 2.250e-03 7.370e-03 2.250e-03 
*LOADS
*RC a_s_reg:D 3.316e-05
*END

*R_NET a\[30\] 9.230e-03
*DRIVER a_reg_30_:Q
*CELL fd1eqd1_hd
*C2_R1_C1 4.615e-03 9.100e-03 4.615e-03 
*LOADS
*RC U263:B 8.399e-05
*RC U417:AN 8.399e-05
*END

*R_NET a\[29\] 5.220e-03
*DRIVER a_reg_29_:Q
*CELL fd1eqd1_hd
*C2_R1_C1 2.610e-03 7.370e-03 2.610e-03 
*LOADS
*RC U575:A 3.847e-05
*END

*R_NET a\[28\] 1.041e-02
*DRIVER a_reg_28_:Q
*CELL fd1eqd1_hd
*C2_R1_C1 5.205e-03 9.100e-03 5.205e-03 
*LOADS
*RC U231:B 9.473e-05
*RC U587:B 9.473e-05
*END

*R_NET a\[27\] 5.220e-03
*DRIVER a_reg_27_:Q
*CELL fd1eqd1_hd
*C2_R1_C1 2.610e-03 7.370e-03 2.610e-03 
*LOADS
*RC U573:A 3.847e-05
*END

*R_NET a\[26\] 1.041e-02
*DRIVER a_reg_26_:Q
*CELL fd1eqd1_hd
*C2_R1_C1 5.205e-03 9.100e-03 5.205e-03 
*LOADS
*RC U228:B 9.473e-05
*RC U591:B 9.473e-05
*END

*R_NET a\[25\] 5.220e-03
*DRIVER a_reg_25_:Q
*CELL fd1eqd1_hd
*C2_R1_C1 2.610e-03 7.370e-03 2.610e-03 
*LOADS
*RC U571:A 3.847e-05
*END

*R_NET a\[24\] 1.041e-02
*DRIVER a_reg_24_:Q
*CELL fd1eqd1_hd
*C2_R1_C1 5.205e-03 9.100e-03 5.205e-03 
*LOADS
*RC U227:B 9.473e-05
*RC U596:B 9.473e-05
*END

*R_NET a\[23\] 1.654e-02
*DRIVER a_reg_23_:Q
*CELL fd1eqd1_hd
*C2_R1_C1 8.270e-03 9.460e-03 8.270e-03 
*LOADS
*RC U227:A 1.565e-04
*RC U596:A 1.565e-04
*RC U598:C 1.565e-04
*END

*R_NET a\[22\] 5.900e-03
*DRIVER a_reg_22_:Q
*CELL fd1eqd1_hd
*C2_R1_C1 2.950e-03 7.370e-03 2.950e-03 
*LOADS
*RC U482:D 4.348e-05
*END

*R_NET a\[21\] 5.900e-03
*DRIVER a_reg_21_:Q
*CELL fd1eqd1_hd
*C2_R1_C1 2.950e-03 7.370e-03 2.950e-03 
*LOADS
*RC U480:D 4.348e-05
*END

*R_NET a\[20\] 5.900e-03
*DRIVER a_reg_20_:Q
*CELL fd1eqd1_hd
*C2_R1_C1 2.950e-03 7.370e-03 2.950e-03 
*LOADS
*RC U478:D 4.348e-05
*END

*R_NET a\[19\] 5.900e-03
*DRIVER a_reg_19_:Q
*CELL fd1eqd1_hd
*C2_R1_C1 2.950e-03 7.370e-03 2.950e-03 
*LOADS
*RC U476:D 4.348e-05
*END

*R_NET a\[18\] 5.900e-03
*DRIVER a_reg_18_:Q
*CELL fd1eqd1_hd
*C2_R1_C1 2.950e-03 7.370e-03 2.950e-03 
*LOADS
*RC U474:D 4.348e-05
*END

*R_NET a\[17\] 5.900e-03
*DRIVER a_reg_17_:Q
*CELL fd1eqd1_hd
*C2_R1_C1 2.950e-03 7.370e-03 2.950e-03 
*LOADS
*RC U472:D 4.348e-05
*END

*R_NET a\[16\] 5.900e-03
*DRIVER a_reg_16_:Q
*CELL fd1eqd1_hd
*C2_R1_C1 2.950e-03 7.370e-03 2.950e-03 
*LOADS
*RC U470:D 4.348e-05
*END

*R_NET a\[15\] 5.900e-03
*DRIVER a_reg_15_:Q
*CELL fd1eqd1_hd
*C2_R1_C1 2.950e-03 7.370e-03 2.950e-03 
*LOADS
*RC U468:D 4.348e-05
*END

*R_NET a\[14\] 5.900e-03
*DRIVER a_reg_14_:Q
*CELL fd1eqd1_hd
*C2_R1_C1 2.950e-03 7.370e-03 2.950e-03 
*LOADS
*RC U466:D 4.348e-05
*END

*R_NET a\[13\] 5.900e-03
*DRIVER a_reg_13_:Q
*CELL fd1eqd1_hd
*C2_R1_C1 2.950e-03 7.370e-03 2.950e-03 
*LOADS
*RC U464:D 4.348e-05
*END

*R_NET a\[12\] 5.900e-03
*DRIVER a_reg_12_:Q
*CELL fd1eqd1_hd
*C2_R1_C1 2.950e-03 7.370e-03 2.950e-03 
*LOADS
*RC U462:D 4.348e-05
*END

*R_NET a\[11\] 5.900e-03
*DRIVER a_reg_11_:Q
*CELL fd1eqd1_hd
*C2_R1_C1 2.950e-03 7.370e-03 2.950e-03 
*LOADS
*RC U460:D 4.348e-05
*END

*R_NET a\[10\] 5.900e-03
*DRIVER a_reg_10_:Q
*CELL fd1eqd1_hd
*C2_R1_C1 2.950e-03 7.370e-03 2.950e-03 
*LOADS
*RC U458:D 4.348e-05
*END

*R_NET a\[9\] 5.900e-03
*DRIVER a_reg_9_:Q
*CELL fd1eqd1_hd
*C2_R1_C1 2.950e-03 7.370e-03 2.950e-03 
*LOADS
*RC U456:D 4.348e-05
*END

*R_NET a\[8\] 5.900e-03
*DRIVER a_reg_8_:Q
*CELL fd1eqd1_hd
*C2_R1_C1 2.950e-03 7.370e-03 2.950e-03 
*LOADS
*RC U454:D 4.348e-05
*END

*R_NET a\[7\] 5.900e-03
*DRIVER a_reg_7_:Q
*CELL fd1eqd1_hd
*C2_R1_C1 2.950e-03 7.370e-03 2.950e-03 
*LOADS
*RC U452:D 4.348e-05
*END

*R_NET a\[6\] 5.900e-03
*DRIVER a_reg_6_:Q
*CELL fd1eqd1_hd
*C2_R1_C1 2.950e-03 7.370e-03 2.950e-03 
*LOADS
*RC U450:D 4.348e-05
*END

*R_NET a\[5\] 5.900e-03
*DRIVER a_reg_5_:Q
*CELL fd1eqd1_hd
*C2_R1_C1 2.950e-03 7.370e-03 2.950e-03 
*LOADS
*RC U448:D 4.348e-05
*END

*R_NET a\[4\] 5.900e-03
*DRIVER a_reg_4_:Q
*CELL fd1eqd1_hd
*C2_R1_C1 2.950e-03 7.370e-03 2.950e-03 
*LOADS
*RC U446:D 4.348e-05
*END

*R_NET a\[3\] 5.900e-03
*DRIVER a_reg_3_:Q
*CELL fd1eqd1_hd
*C2_R1_C1 2.950e-03 7.370e-03 2.950e-03 
*LOADS
*RC U444:D 4.348e-05
*END

*R_NET a\[2\] 5.900e-03
*DRIVER a_reg_2_:Q
*CELL fd1eqd1_hd
*C2_R1_C1 2.950e-03 7.370e-03 2.950e-03 
*LOADS
*RC U442:D 4.348e-05
*END

*R_NET a\[1\] 5.900e-03
*DRIVER a_reg_1_:Q
*CELL fd1eqd1_hd
*C2_R1_C1 2.950e-03 7.370e-03 2.950e-03 
*LOADS
*RC U440:D 4.348e-05
*END

*R_NET a\[0\] 5.900e-03
*DRIVER a_reg_0_:Q
*CELL fd1eqd1_hd
*C2_R1_C1 2.950e-03 7.370e-03 2.950e-03 
*LOADS
*RC U438:D 4.348e-05
*END

*R_NET a_e\[8\] 2.662e-02
*DRIVER a_e_reg_8_:Q
*CELL fd1eqd1_hd
*C2_R1_C1 1.331e-02 1.549e-02 1.331e-02 
*LOADS
*RC U265:A 4.123e-04
*RC U301:A 4.123e-04
*RC U317:A 4.123e-04
*RC U359:C 4.123e-04
*RC U581:A 4.123e-04
*END

*R_NET a_e\[7\] 5.220e-03
*DRIVER a_e_reg_7_:Q
*CELL fd1eqd1_hd
*C2_R1_C1 2.610e-03 7.370e-03 2.610e-03 
*LOADS
*RC U360:A 3.847e-05
*END

*R_NET a_e\[6\] 1.637e-02
*DRIVER a_e_reg_6_:Q
*CELL fd1eqd1_hd
*C2_R1_C1 8.185e-03 9.460e-03 8.185e-03 
*LOADS
*RC U230:A 1.549e-04
*RC U420:B 1.549e-04
*RC U584:A 1.549e-04
*END

*R_NET a_e\[5\] 9.960e-03
*DRIVER a_e_reg_5_:Q
*CELL fd1eqd1_hd
*C2_R1_C1 4.980e-03 9.100e-03 4.980e-03 
*LOADS
*RC U420:A 9.064e-05
*RC U578:A 9.064e-05
*END

*R_NET a_e\[4\] 1.692e-02
*DRIVER a_e_reg_4_:Q
*CELL fd1eqd1_hd
*C2_R1_C1 8.460e-03 9.460e-03 8.460e-03 
*LOADS
*RC U229:B 1.601e-04
*RC U428:C 1.601e-04
*RC U588:B 1.601e-04
*END

*R_NET a_e\[3\] 1.049e-02
*DRIVER a_e_reg_3_:Q
*CELL fd1eqd1_hd
*C2_R1_C1 5.245e-03 9.100e-03 5.245e-03 
*LOADS
*RC U365:A 9.546e-05
*RC U428:A 9.546e-05
*END

*R_NET a_e\[2\] 1.719e-02
*DRIVER a_e_reg_2_:Q
*CELL fd1eqd1_hd
*C2_R1_C1 8.595e-03 9.460e-03 8.595e-03 
*LOADS
*RC U422:A 1.626e-04
*RC U428:B 1.626e-04
*RC U593:A 1.626e-04
*END

*R_NET a_e\[1\] 2.236e-02
*DRIVER a_e_reg_1_:Q
*CELL fd1eqd1_hd
*C2_R1_C1 1.118e-02 1.094e-02 1.118e-02 
*LOADS
*RC U422:C 2.446e-04
*RC U427:A 2.446e-04
*RC U592:AN 2.446e-04
*RC U595:A 2.446e-04
*END

*R_NET a_e\[0\] 1.630e-02
*DRIVER a_e_reg_0_:Q
*CELL fd1eqd1_hd
*C2_R1_C1 8.150e-03 9.460e-03 8.150e-03 
*LOADS
*RC U403:A 1.542e-04
*RC U422:B 1.542e-04
*RC U598:A 1.542e-04
*END

*R_NET a_m\[31\] 9.960e-03
*DRIVER a_m_reg_31_:Q
*CELL fd1qd1_hd
*C2_R1_C1 4.980e-03 9.100e-03 4.980e-03 
*LOADS
*RC U361:A 9.064e-05
*RC U484:A 9.064e-05
*END

*R_NET a_m\[30\] 1.615e-02
*DRIVER a_m_reg_30_:Q
*CELL fd1qd1_hd
*C2_R1_C1 8.075e-03 9.460e-03 8.075e-03 
*LOADS
*RC U237:A 1.528e-04
*RC U392:A 1.528e-04
*RC U482:A 1.528e-04
*END

*R_NET a_m\[29\] 2.316e-02
*DRIVER a_m_reg_29_:Q
*CELL fd1qd1_hd
*C2_R1_C1 1.158e-02 1.094e-02 1.158e-02 
*LOADS
*RC U344:A 2.534e-04
*RC U480:A 2.534e-04
*RC U563:A 2.534e-04
*RC U564:A 2.534e-04
*END

*R_NET a_m\[28\] 1.615e-02
*DRIVER a_m_reg_28_:Q
*CELL fd1qd1_hd
*C2_R1_C1 8.075e-03 9.460e-03 8.075e-03 
*LOADS
*RC U259:A 1.528e-04
*RC U384:A 1.528e-04
*RC U478:A 1.528e-04
*END

*R_NET a_m\[27\] 2.316e-02
*DRIVER a_m_reg_27_:Q
*CELL fd1qd1_hd
*C2_R1_C1 1.158e-02 1.094e-02 1.158e-02 
*LOADS
*RC U362:A 2.534e-04
*RC U476:A 2.534e-04
*RC U558:A 2.534e-04
*RC U559:A 2.534e-04
*END

*R_NET a_m\[26\] 1.615e-02
*DRIVER a_m_reg_26_:Q
*CELL fd1qd1_hd
*C2_R1_C1 8.075e-03 9.460e-03 8.075e-03 
*LOADS
*RC U257:A 1.528e-04
*RC U385:A 1.528e-04
*RC U474:A 1.528e-04
*END

*R_NET a_m\[25\] 2.316e-02
*DRIVER a_m_reg_25_:Q
*CELL fd1qd1_hd
*C2_R1_C1 1.158e-02 1.094e-02 1.158e-02 
*LOADS
*RC U363:A 2.534e-04
*RC U472:A 2.534e-04
*RC U553:A 2.534e-04
*RC U554:A 2.534e-04
*END

*R_NET a_m\[24\] 1.615e-02
*DRIVER a_m_reg_24_:Q
*CELL fd1qd1_hd
*C2_R1_C1 8.075e-03 9.460e-03 8.075e-03 
*LOADS
*RC U255:A 1.528e-04
*RC U374:A 1.528e-04
*RC U470:A 1.528e-04
*END

*R_NET a_m\[23\] 2.316e-02
*DRIVER a_m_reg_23_:Q
*CELL fd1qd1_hd
*C2_R1_C1 1.158e-02 1.094e-02 1.158e-02 
*LOADS
*RC U404:A 2.534e-04
*RC U468:A 2.534e-04
*RC U548:A 2.534e-04
*RC U549:A 2.534e-04
*END

*R_NET a_m\[22\] 1.615e-02
*DRIVER a_m_reg_22_:Q
*CELL fd1qd1_hd
*C2_R1_C1 8.075e-03 9.460e-03 8.075e-03 
*LOADS
*RC U334:A 1.528e-04
*RC U372:A 1.528e-04
*RC U466:A 1.528e-04
*END

*R_NET a_m\[21\] 2.316e-02
*DRIVER a_m_reg_21_:Q
*CELL fd1qd1_hd
*C2_R1_C1 1.158e-02 1.094e-02 1.158e-02 
*LOADS
*RC U405:A 2.534e-04
*RC U464:A 2.534e-04
*RC U543:A 2.534e-04
*RC U544:A 2.534e-04
*END

*R_NET a_m\[20\] 1.615e-02
*DRIVER a_m_reg_20_:Q
*CELL fd1qd1_hd
*C2_R1_C1 8.075e-03 9.460e-03 8.075e-03 
*LOADS
*RC U335:A 1.528e-04
*RC U370:A 1.528e-04
*RC U462:A 1.528e-04
*END

*R_NET a_m\[19\] 2.316e-02
*DRIVER a_m_reg_19_:Q
*CELL fd1qd1_hd
*C2_R1_C1 1.158e-02 1.094e-02 1.158e-02 
*LOADS
*RC U406:A 2.534e-04
*RC U460:A 2.534e-04
*RC U538:A 2.534e-04
*RC U539:A 2.534e-04
*END

*R_NET a_m\[18\] 1.615e-02
*DRIVER a_m_reg_18_:Q
*CELL fd1qd1_hd
*C2_R1_C1 8.075e-03 9.460e-03 8.075e-03 
*LOADS
*RC U336:A 1.528e-04
*RC U394:A 1.528e-04
*RC U458:A 1.528e-04
*END

*R_NET a_m\[17\] 2.316e-02
*DRIVER a_m_reg_17_:Q
*CELL fd1qd1_hd
*C2_R1_C1 1.158e-02 1.094e-02 1.158e-02 
*LOADS
*RC U407:A 2.534e-04
*RC U456:A 2.534e-04
*RC U533:A 2.534e-04
*RC U534:A 2.534e-04
*END

*R_NET a_m\[16\] 1.615e-02
*DRIVER a_m_reg_16_:Q
*CELL fd1qd1_hd
*C2_R1_C1 8.075e-03 9.460e-03 8.075e-03 
*LOADS
*RC U337:A 1.528e-04
*RC U393:A 1.528e-04
*RC U454:A 1.528e-04
*END

*R_NET a_m\[15\] 2.316e-02
*DRIVER a_m_reg_15_:Q
*CELL fd1qd1_hd
*C2_R1_C1 1.158e-02 1.094e-02 1.158e-02 
*LOADS
*RC U408:A 2.534e-04
*RC U452:A 2.534e-04
*RC U528:A 2.534e-04
*RC U529:A 2.534e-04
*END

*R_NET a_m\[14\] 1.615e-02
*DRIVER a_m_reg_14_:Q
*CELL fd1qd1_hd
*C2_R1_C1 8.075e-03 9.460e-03 8.075e-03 
*LOADS
*RC U338:A 1.528e-04
*RC U396:A 1.528e-04
*RC U450:A 1.528e-04
*END

*R_NET a_m\[13\] 2.316e-02
*DRIVER a_m_reg_13_:Q
*CELL fd1qd1_hd
*C2_R1_C1 1.158e-02 1.094e-02 1.158e-02 
*LOADS
*RC U409:A 2.534e-04
*RC U448:A 2.534e-04
*RC U523:A 2.534e-04
*RC U524:A 2.534e-04
*END

*R_NET a_m\[12\] 1.615e-02
*DRIVER a_m_reg_12_:Q
*CELL fd1qd1_hd
*C2_R1_C1 8.075e-03 9.460e-03 8.075e-03 
*LOADS
*RC U339:A 1.528e-04
*RC U376:A 1.528e-04
*RC U446:A 1.528e-04
*END

*R_NET a_m\[11\] 2.316e-02
*DRIVER a_m_reg_11_:Q
*CELL fd1qd1_hd
*C2_R1_C1 1.158e-02 1.094e-02 1.158e-02 
*LOADS
*RC U410:A 2.534e-04
*RC U444:A 2.534e-04
*RC U517:A 2.534e-04
*RC U518:A 2.534e-04
*END

*R_NET a_m\[10\] 1.615e-02
*DRIVER a_m_reg_10_:Q
*CELL fd1qd1_hd
*C2_R1_C1 8.075e-03 9.460e-03 8.075e-03 
*LOADS
*RC U340:A 1.528e-04
*RC U379:A 1.528e-04
*RC U442:A 1.528e-04
*END

*R_NET a_m\[9\] 2.316e-02
*DRIVER a_m_reg_9_:Q
*CELL fd1qd1_hd
*C2_R1_C1 1.158e-02 1.094e-02 1.158e-02 
*LOADS
*RC U411:A 2.534e-04
*RC U440:A 2.534e-04
*RC U512:A 2.534e-04
*RC U513:A 2.534e-04
*END

*R_NET a_m\[8\] 1.615e-02
*DRIVER a_m_reg_8_:Q
*CELL fd1qd1_hd
*C2_R1_C1 8.075e-03 9.460e-03 8.075e-03 
*LOADS
*RC U386:A 1.528e-04
*RC U426:A 1.528e-04
*RC U438:A 1.528e-04
*END

*R_NET a_m\[7\] 1.658e-02
*DRIVER a_m_reg_7_:Q
*CELL fd1qd1_hd
*C2_R1_C1 8.290e-03 9.460e-03 8.290e-03 
*LOADS
*RC U412:A 1.568e-04
*RC U507:A 1.568e-04
*RC U508:A 1.568e-04
*END

*R_NET a_m\[6\] 9.960e-03
*DRIVER a_m_reg_6_:Q
*CELL fd1qd1_hd
*C2_R1_C1 4.980e-03 9.100e-03 4.980e-03 
*LOADS
*RC U397:A 9.064e-05
*RC U425:A 9.064e-05
*END

*R_NET a_m\[5\] 1.658e-02
*DRIVER a_m_reg_5_:Q
*CELL fd1qd1_hd
*C2_R1_C1 8.290e-03 9.460e-03 8.290e-03 
*LOADS
*RC U341:A 1.568e-04
*RC U502:A 1.568e-04
*RC U503:A 1.568e-04
*END

*R_NET a_m\[4\] 9.960e-03
*DRIVER a_m_reg_4_:Q
*CELL fd1qd1_hd
*C2_R1_C1 4.980e-03 9.100e-03 4.980e-03 
*LOADS
*RC U398:A 9.064e-05
*RC U424:A 9.064e-05
*END

*R_NET a_m\[3\] 1.658e-02
*DRIVER a_m_reg_3_:Q
*CELL fd1qd1_hd
*C2_R1_C1 8.290e-03 9.460e-03 8.290e-03 
*LOADS
*RC U413:A 1.568e-04
*RC U496:A 1.568e-04
*RC U497:A 1.568e-04
*END

*R_NET a_m\[2\] 9.960e-03
*DRIVER a_m_reg_2_:Q
*CELL fd1qd1_hd
*C2_R1_C1 4.980e-03 9.100e-03 4.980e-03 
*LOADS
*RC U400:A 9.064e-05
*RC U423:A 9.064e-05
*END

*R_NET a_m\[1\] 5.220e-03
*DRIVER a_m_reg_1_:Q
*CELL fd1qd1_hd
*C2_R1_C1 2.610e-03 7.370e-03 2.610e-03 
*LOADS
*RC U414:A 3.847e-05
*END

*R_NET a_s 3.031e-02
*DRIVER a_s_reg:Q
*CELL fd1eqd1_hd
*C2_R1_C1 1.515e-02 1.674e-02 1.515e-02 
*LOADS
*RC U278:B 5.074e-04
*RC U280:B 5.074e-04
*RC U282:B 5.074e-04
*RC U284:B 5.074e-04
*RC U326:A 5.074e-04
*RC U325:A 5.074e-04
*END
