*SPEF "IEEE 1481-1999"
*DESIGN "converter_f2i"
*DATE "Tue Jun  9 04:24:37 2020"
*VENDOR "SYNOPSYS INC"
*PROGRAM "Synopsys Design Compiler cmos"
*VERSION "F-2011.09-SP5-3"
*DESIGN_FLOW "SYNTHESIS"
*DIVIDER /
*DELIMITER :
*BUS_DELIMITER []
*T_UNIT 1.0 NS
*C_UNIT 1.0 PF
*R_UNIT 1.0 KOHM
*L_UNIT 1.0 HENRY

*PORTS

i_A\[31\] I *L 0.000e+00 *S 0.000e+00 0.000e+00 
i_A\[30\] I *L 0.000e+00 *S 0.000e+00 0.000e+00 
i_A\[29\] I *L 0.000e+00 *S 0.000e+00 0.000e+00 
i_A\[28\] I *L 0.000e+00 *S 0.000e+00 0.000e+00 
i_A\[27\] I *L 0.000e+00 *S 0.000e+00 0.000e+00 
i_A\[26\] I *L 0.000e+00 *S 0.000e+00 0.000e+00 
i_A\[25\] I *L 0.000e+00 *S 0.000e+00 0.000e+00 
i_A\[24\] I *L 0.000e+00 *S 0.000e+00 0.000e+00 
i_A\[23\] I *L 0.000e+00 *S 0.000e+00 0.000e+00 
i_A\[22\] I *L 0.000e+00 *S 0.000e+00 0.000e+00 
i_A\[21\] I *L 0.000e+00 *S 0.000e+00 0.000e+00 
i_A\[20\] I *L 0.000e+00 *S 0.000e+00 0.000e+00 
i_A\[19\] I *L 0.000e+00 *S 0.000e+00 0.000e+00 
i_A\[18\] I *L 0.000e+00 *S 0.000e+00 0.000e+00 
i_A\[17\] I *L 0.000e+00 *S 0.000e+00 0.000e+00 
i_A\[16\] I *L 0.000e+00 *S 0.000e+00 0.000e+00 
i_A\[15\] I *L 0.000e+00 *S 0.000e+00 0.000e+00 
i_A\[14\] I *L 0.000e+00 *S 0.000e+00 0.000e+00 
i_A\[13\] I *L 0.000e+00 *S 0.000e+00 0.000e+00 
i_A\[12\] I *L 0.000e+00 *S 0.000e+00 0.000e+00 
i_A\[11\] I *L 0.000e+00 *S 0.000e+00 0.000e+00 
i_A\[10\] I *L 0.000e+00 *S 0.000e+00 0.000e+00 
i_A\[9\] I *L 0.000e+00 *S 0.000e+00 0.000e+00 
i_A\[8\] I *L 0.000e+00 *S 0.000e+00 0.000e+00 
i_A\[7\] I *L 0.000e+00 *S 0.000e+00 0.000e+00 
i_A\[6\] I *L 0.000e+00 *S 0.000e+00 0.000e+00 
i_A\[5\] I *L 0.000e+00 *S 0.000e+00 0.000e+00 
i_A\[4\] I *L 0.000e+00 *S 0.000e+00 0.000e+00 
i_A\[3\] I *L 0.000e+00 *S 0.000e+00 0.000e+00 
i_A\[2\] I *L 0.000e+00 *S 0.000e+00 0.000e+00 
i_A\[1\] I *L 0.000e+00 *S 0.000e+00 0.000e+00 
i_A\[0\] I *L 0.000e+00 *S 0.000e+00 0.000e+00 
i_A_STB I *L 0.000e+00 *S 0.000e+00 0.000e+00 
o_A_ACK O *L 1.035e-02 *S 2.284e-01 1.770e-01 
o_Z\[31\] O *L 1.035e-02 *S 1.237e-01 1.056e-01 
o_Z\[30\] O *L 1.035e-02 *S 1.237e-01 1.056e-01 
o_Z\[29\] O *L 1.035e-02 *S 1.237e-01 1.056e-01 
o_Z\[28\] O *L 1.035e-02 *S 1.237e-01 1.056e-01 
o_Z\[27\] O *L 1.035e-02 *S 1.237e-01 1.056e-01 
o_Z\[26\] O *L 1.035e-02 *S 1.237e-01 1.056e-01 
o_Z\[25\] O *L 1.035e-02 *S 1.237e-01 1.056e-01 
o_Z\[24\] O *L 1.035e-02 *S 1.237e-01 1.056e-01 
o_Z\[23\] O *L 1.035e-02 *S 1.237e-01 1.056e-01 
o_Z\[22\] O *L 1.035e-02 *S 1.237e-01 1.056e-01 
o_Z\[21\] O *L 1.035e-02 *S 1.237e-01 1.056e-01 
o_Z\[20\] O *L 1.035e-02 *S 1.237e-01 1.056e-01 
o_Z\[19\] O *L 1.035e-02 *S 1.237e-01 1.056e-01 
o_Z\[18\] O *L 1.035e-02 *S 1.237e-01 1.056e-01 
o_Z\[17\] O *L 1.035e-02 *S 1.237e-01 1.056e-01 
o_Z\[16\] O *L 1.035e-02 *S 1.237e-01 1.056e-01 
o_Z\[15\] O *L 1.035e-02 *S 1.237e-01 1.056e-01 
o_Z\[14\] O *L 1.035e-02 *S 1.237e-01 1.056e-01 
o_Z\[13\] O *L 1.035e-02 *S 1.237e-01 1.056e-01 
o_Z\[12\] O *L 1.035e-02 *S 1.237e-01 1.056e-01 
o_Z\[11\] O *L 1.035e-02 *S 1.237e-01 1.056e-01 
o_Z\[10\] O *L 1.035e-02 *S 1.237e-01 1.056e-01 
o_Z\[9\] O *L 1.035e-02 *S 1.237e-01 1.056e-01 
o_Z\[8\] O *L 1.035e-02 *S 1.237e-01 1.056e-01 
o_Z\[7\] O *L 1.035e-02 *S 1.237e-01 1.056e-01 
o_Z\[6\] O *L 1.035e-02 *S 1.237e-01 1.056e-01 
o_Z\[5\] O *L 1.035e-02 *S 1.237e-01 1.056e-01 
o_Z\[4\] O *L 1.035e-02 *S 1.237e-01 1.056e-01 
o_Z\[3\] O *L 1.035e-02 *S 1.237e-01 1.056e-01 
o_Z\[2\] O *L 1.035e-02 *S 1.237e-01 1.056e-01 
o_Z\[1\] O *L 1.035e-02 *S 1.237e-01 1.056e-01 
o_Z\[0\] O *L 1.035e-02 *S 1.237e-01 1.056e-01 
o_Z_STB O *L 1.035e-02 *S 2.150e-01 1.685e-01 
i_Z_ACK I *L 0.000e+00 *S 0.000e+00 0.000e+00 
i_CLK I *L 0.000e+00 *S 0.000e+00 0.000e+00 
i_RST I *L 0.000e+00 *S 0.000e+00 0.000e+00 

*R_NET i_A\[31\] 4.550e-03
*DRIVER i_A\[31\]
*CELL NULL
*C2_R1_C1 2.275e-03 7.370e-03 2.275e-03 
*LOADS
*RC a_reg_31_:D 3.353e-05
*END

*R_NET i_A\[30\] 4.550e-03
*DRIVER i_A\[30\]
*CELL NULL
*C2_R1_C1 2.275e-03 7.370e-03 2.275e-03 
*LOADS
*RC a_reg_30_:D 3.353e-05
*END

*R_NET i_A\[29\] 4.550e-03
*DRIVER i_A\[29\]
*CELL NULL
*C2_R1_C1 2.275e-03 7.370e-03 2.275e-03 
*LOADS
*RC a_reg_29_:D 3.353e-05
*END

*R_NET i_A\[28\] 4.550e-03
*DRIVER i_A\[28\]
*CELL NULL
*C2_R1_C1 2.275e-03 7.370e-03 2.275e-03 
*LOADS
*RC a_reg_28_:D 3.353e-05
*END

*R_NET i_A\[27\] 4.550e-03
*DRIVER i_A\[27\]
*CELL NULL
*C2_R1_C1 2.275e-03 7.370e-03 2.275e-03 
*LOADS
*RC a_reg_27_:D 3.353e-05
*END

*R_NET i_A\[26\] 4.550e-03
*DRIVER i_A\[26\]
*CELL NULL
*C2_R1_C1 2.275e-03 7.370e-03 2.275e-03 
*LOADS
*RC a_reg_26_:D 3.353e-05
*END

*R_NET i_A\[25\] 4.550e-03
*DRIVER i_A\[25\]
*CELL NULL
*C2_R1_C1 2.275e-03 7.370e-03 2.275e-03 
*LOADS
*RC a_reg_25_:D 3.353e-05
*END

*R_NET i_A\[24\] 4.550e-03
*DRIVER i_A\[24\]
*CELL NULL
*C2_R1_C1 2.275e-03 7.370e-03 2.275e-03 
*LOADS
*RC a_reg_24_:D 3.353e-05
*END

*R_NET i_A\[23\] 4.550e-03
*DRIVER i_A\[23\]
*CELL NULL
*C2_R1_C1 2.275e-03 7.370e-03 2.275e-03 
*LOADS
*RC a_reg_23_:D 3.353e-05
*END

*R_NET i_A\[22\] 4.550e-03
*DRIVER i_A\[22\]
*CELL NULL
*C2_R1_C1 2.275e-03 7.370e-03 2.275e-03 
*LOADS
*RC a_reg_22_:D 3.353e-05
*END

*R_NET i_A\[21\] 4.550e-03
*DRIVER i_A\[21\]
*CELL NULL
*C2_R1_C1 2.275e-03 7.370e-03 2.275e-03 
*LOADS
*RC a_reg_21_:D 3.353e-05
*END

*R_NET i_A\[20\] 4.550e-03
*DRIVER i_A\[20\]
*CELL NULL
*C2_R1_C1 2.275e-03 7.370e-03 2.275e-03 
*LOADS
*RC a_reg_20_:D 3.353e-05
*END

*R_NET i_A\[19\] 4.550e-03
*DRIVER i_A\[19\]
*CELL NULL
*C2_R1_C1 2.275e-03 7.370e-03 2.275e-03 
*LOADS
*RC a_reg_19_:D 3.353e-05
*END

*R_NET i_A\[18\] 4.550e-03
*DRIVER i_A\[18\]
*CELL NULL
*C2_R1_C1 2.275e-03 7.370e-03 2.275e-03 
*LOADS
*RC a_reg_18_:D 3.353e-05
*END

*R_NET i_A\[17\] 4.550e-03
*DRIVER i_A\[17\]
*CELL NULL
*C2_R1_C1 2.275e-03 7.370e-03 2.275e-03 
*LOADS
*RC a_reg_17_:D 3.353e-05
*END

*R_NET i_A\[16\] 4.550e-03
*DRIVER i_A\[16\]
*CELL NULL
*C2_R1_C1 2.275e-03 7.370e-03 2.275e-03 
*LOADS
*RC a_reg_16_:D 3.353e-05
*END

*R_NET i_A\[15\] 4.550e-03
*DRIVER i_A\[15\]
*CELL NULL
*C2_R1_C1 2.275e-03 7.370e-03 2.275e-03 
*LOADS
*RC a_reg_15_:D 3.353e-05
*END

*R_NET i_A\[14\] 4.550e-03
*DRIVER i_A\[14\]
*CELL NULL
*C2_R1_C1 2.275e-03 7.370e-03 2.275e-03 
*LOADS
*RC a_reg_14_:D 3.353e-05
*END

*R_NET i_A\[13\] 4.550e-03
*DRIVER i_A\[13\]
*CELL NULL
*C2_R1_C1 2.275e-03 7.370e-03 2.275e-03 
*LOADS
*RC a_reg_13_:D 3.353e-05
*END

*R_NET i_A\[12\] 4.550e-03
*DRIVER i_A\[12\]
*CELL NULL
*C2_R1_C1 2.275e-03 7.370e-03 2.275e-03 
*LOADS
*RC a_reg_12_:D 3.353e-05
*END

*R_NET i_A\[11\] 4.550e-03
*DRIVER i_A\[11\]
*CELL NULL
*C2_R1_C1 2.275e-03 7.370e-03 2.275e-03 
*LOADS
*RC a_reg_11_:D 3.353e-05
*END

*R_NET i_A\[10\] 4.550e-03
*DRIVER i_A\[10\]
*CELL NULL
*C2_R1_C1 2.275e-03 7.370e-03 2.275e-03 
*LOADS
*RC a_reg_10_:D 3.353e-05
*END

*R_NET i_A\[9\] 4.550e-03
*DRIVER i_A\[9\]
*CELL NULL
*C2_R1_C1 2.275e-03 7.370e-03 2.275e-03 
*LOADS
*RC a_reg_9_:D 3.353e-05
*END

*R_NET i_A\[8\] 4.550e-03
*DRIVER i_A\[8\]
*CELL NULL
*C2_R1_C1 2.275e-03 7.370e-03 2.275e-03 
*LOADS
*RC a_reg_8_:D 3.353e-05
*END

*R_NET i_A\[7\] 4.550e-03
*DRIVER i_A\[7\]
*CELL NULL
*C2_R1_C1 2.275e-03 7.370e-03 2.275e-03 
*LOADS
*RC a_reg_7_:D 3.353e-05
*END

*R_NET i_A\[6\] 4.550e-03
*DRIVER i_A\[6\]
*CELL NULL
*C2_R1_C1 2.275e-03 7.370e-03 2.275e-03 
*LOADS
*RC a_reg_6_:D 3.353e-05
*END

*R_NET i_A\[5\] 4.550e-03
*DRIVER i_A\[5\]
*CELL NULL
*C2_R1_C1 2.275e-03 7.370e-03 2.275e-03 
*LOADS
*RC a_reg_5_:D 3.353e-05
*END

*R_NET i_A\[4\] 4.550e-03
*DRIVER i_A\[4\]
*CELL NULL
*C2_R1_C1 2.275e-03 7.370e-03 2.275e-03 
*LOADS
*RC a_reg_4_:D 3.353e-05
*END

*R_NET i_A\[3\] 4.550e-03
*DRIVER i_A\[3\]
*CELL NULL
*C2_R1_C1 2.275e-03 7.370e-03 2.275e-03 
*LOADS
*RC a_reg_3_:D 3.353e-05
*END

*R_NET i_A\[2\] 4.550e-03
*DRIVER i_A\[2\]
*CELL NULL
*C2_R1_C1 2.275e-03 7.370e-03 2.275e-03 
*LOADS
*RC a_reg_2_:D 3.353e-05
*END

*R_NET i_A\[1\] 4.550e-03
*DRIVER i_A\[1\]
*CELL NULL
*C2_R1_C1 2.275e-03 7.370e-03 2.275e-03 
*LOADS
*RC a_reg_1_:D 3.353e-05
*END

*R_NET i_A\[0\] 4.550e-03
*DRIVER i_A\[0\]
*CELL NULL
*C2_R1_C1 2.275e-03 7.370e-03 2.275e-03 
*LOADS
*RC a_reg_0_:D 3.353e-05
*END

*R_NET i_A_STB 1.199e-02
*DRIVER i_A_STB
*CELL NULL
*C2_R1_C1 5.995e-03 9.100e-03 5.995e-03 
*LOADS
*RC U168:A 1.091e-04
*RC U321:B 1.091e-04
*END

*R_NET o_A_ACK 2.627e-02
*DRIVER o_A_ACK_reg:Q
*CELL fds2eqd1_hd
*C2_R1_C1 1.314e-02 9.460e-03 1.314e-02 
*LOADS
*RC U168:B 2.485e-04
*RC U321:A 2.485e-04
*RC o_A_ACK 2.485e-04
*END

*R_NET o_Z\[31\] 1.350e-02
*DRIVER o_Z_reg_31_:Q
*CELL fds2eqd1_hd
*C2_R1_C1 6.750e-03 7.370e-03 6.750e-03 
*LOADS
*RC o_Z\[31\] 9.950e-05
*END

*R_NET o_Z\[30\] 1.350e-02
*DRIVER o_Z_reg_30_:Q
*CELL fds2eqd1_hd
*C2_R1_C1 6.750e-03 7.370e-03 6.750e-03 
*LOADS
*RC o_Z\[30\] 9.950e-05
*END

*R_NET o_Z\[29\] 1.350e-02
*DRIVER o_Z_reg_29_:Q
*CELL fds2eqd1_hd
*C2_R1_C1 6.750e-03 7.370e-03 6.750e-03 
*LOADS
*RC o_Z\[29\] 9.950e-05
*END

*R_NET o_Z\[28\] 1.350e-02
*DRIVER o_Z_reg_28_:Q
*CELL fds2eqd1_hd
*C2_R1_C1 6.750e-03 7.370e-03 6.750e-03 
*LOADS
*RC o_Z\[28\] 9.950e-05
*END

*R_NET o_Z\[27\] 1.350e-02
*DRIVER o_Z_reg_27_:Q
*CELL fds2eqd1_hd
*C2_R1_C1 6.750e-03 7.370e-03 6.750e-03 
*LOADS
*RC o_Z\[27\] 9.950e-05
*END

*R_NET o_Z\[26\] 1.350e-02
*DRIVER o_Z_reg_26_:Q
*CELL fds2eqd1_hd
*C2_R1_C1 6.750e-03 7.370e-03 6.750e-03 
*LOADS
*RC o_Z\[26\] 9.950e-05
*END

*R_NET o_Z\[25\] 1.350e-02
*DRIVER o_Z_reg_25_:Q
*CELL fds2eqd1_hd
*C2_R1_C1 6.750e-03 7.370e-03 6.750e-03 
*LOADS
*RC o_Z\[25\] 9.950e-05
*END

*R_NET o_Z\[24\] 1.350e-02
*DRIVER o_Z_reg_24_:Q
*CELL fds2eqd1_hd
*C2_R1_C1 6.750e-03 7.370e-03 6.750e-03 
*LOADS
*RC o_Z\[24\] 9.950e-05
*END

*R_NET o_Z\[23\] 1.350e-02
*DRIVER o_Z_reg_23_:Q
*CELL fds2eqd1_hd
*C2_R1_C1 6.750e-03 7.370e-03 6.750e-03 
*LOADS
*RC o_Z\[23\] 9.950e-05
*END

*R_NET o_Z\[22\] 1.350e-02
*DRIVER o_Z_reg_22_:Q
*CELL fds2eqd1_hd
*C2_R1_C1 6.750e-03 7.370e-03 6.750e-03 
*LOADS
*RC o_Z\[22\] 9.950e-05
*END

*R_NET o_Z\[21\] 1.350e-02
*DRIVER o_Z_reg_21_:Q
*CELL fds2eqd1_hd
*C2_R1_C1 6.750e-03 7.370e-03 6.750e-03 
*LOADS
*RC o_Z\[21\] 9.950e-05
*END

*R_NET o_Z\[20\] 1.350e-02
*DRIVER o_Z_reg_20_:Q
*CELL fds2eqd1_hd
*C2_R1_C1 6.750e-03 7.370e-03 6.750e-03 
*LOADS
*RC o_Z\[20\] 9.950e-05
*END

*R_NET o_Z\[19\] 1.350e-02
*DRIVER o_Z_reg_19_:Q
*CELL fds2eqd1_hd
*C2_R1_C1 6.750e-03 7.370e-03 6.750e-03 
*LOADS
*RC o_Z\[19\] 9.950e-05
*END

*R_NET o_Z\[18\] 1.350e-02
*DRIVER o_Z_reg_18_:Q
*CELL fds2eqd1_hd
*C2_R1_C1 6.750e-03 7.370e-03 6.750e-03 
*LOADS
*RC o_Z\[18\] 9.950e-05
*END

*R_NET o_Z\[17\] 1.350e-02
*DRIVER o_Z_reg_17_:Q
*CELL fds2eqd1_hd
*C2_R1_C1 6.750e-03 7.370e-03 6.750e-03 
*LOADS
*RC o_Z\[17\] 9.950e-05
*END

*R_NET o_Z\[16\] 1.350e-02
*DRIVER o_Z_reg_16_:Q
*CELL fds2eqd1_hd
*C2_R1_C1 6.750e-03 7.370e-03 6.750e-03 
*LOADS
*RC o_Z\[16\] 9.950e-05
*END

*R_NET o_Z\[15\] 1.350e-02
*DRIVER o_Z_reg_15_:Q
*CELL fds2eqd1_hd
*C2_R1_C1 6.750e-03 7.370e-03 6.750e-03 
*LOADS
*RC o_Z\[15\] 9.950e-05
*END

*R_NET o_Z\[14\] 1.350e-02
*DRIVER o_Z_reg_14_:Q
*CELL fds2eqd1_hd
*C2_R1_C1 6.750e-03 7.370e-03 6.750e-03 
*LOADS
*RC o_Z\[14\] 9.950e-05
*END

*R_NET o_Z\[13\] 1.350e-02
*DRIVER o_Z_reg_13_:Q
*CELL fds2eqd1_hd
*C2_R1_C1 6.750e-03 7.370e-03 6.750e-03 
*LOADS
*RC o_Z\[13\] 9.950e-05
*END

*R_NET o_Z\[12\] 1.350e-02
*DRIVER o_Z_reg_12_:Q
*CELL fds2eqd1_hd
*C2_R1_C1 6.750e-03 7.370e-03 6.750e-03 
*LOADS
*RC o_Z\[12\] 9.950e-05
*END

*R_NET o_Z\[11\] 1.350e-02
*DRIVER o_Z_reg_11_:Q
*CELL fds2eqd1_hd
*C2_R1_C1 6.750e-03 7.370e-03 6.750e-03 
*LOADS
*RC o_Z\[11\] 9.950e-05
*END

*R_NET o_Z\[10\] 1.350e-02
*DRIVER o_Z_reg_10_:Q
*CELL fds2eqd1_hd
*C2_R1_C1 6.750e-03 7.370e-03 6.750e-03 
*LOADS
*RC o_Z\[10\] 9.950e-05
*END

*R_NET o_Z\[9\] 1.350e-02
*DRIVER o_Z_reg_9_:Q
*CELL fds2eqd1_hd
*C2_R1_C1 6.750e-03 7.370e-03 6.750e-03 
*LOADS
*RC o_Z\[9\] 9.950e-05
*END

*R_NET o_Z\[8\] 1.350e-02
*DRIVER o_Z_reg_8_:Q
*CELL fds2eqd1_hd
*C2_R1_C1 6.750e-03 7.370e-03 6.750e-03 
*LOADS
*RC o_Z\[8\] 9.950e-05
*END

*R_NET o_Z\[7\] 1.350e-02
*DRIVER o_Z_reg_7_:Q
*CELL fds2eqd1_hd
*C2_R1_C1 6.750e-03 7.370e-03 6.750e-03 
*LOADS
*RC o_Z\[7\] 9.950e-05
*END

*R_NET o_Z\[6\] 1.350e-02
*DRIVER o_Z_reg_6_:Q
*CELL fds2eqd1_hd
*C2_R1_C1 6.750e-03 7.370e-03 6.750e-03 
*LOADS
*RC o_Z\[6\] 9.950e-05
*END

*R_NET o_Z\[5\] 1.350e-02
*DRIVER o_Z_reg_5_:Q
*CELL fds2eqd1_hd
*C2_R1_C1 6.750e-03 7.370e-03 6.750e-03 
*LOADS
*RC o_Z\[5\] 9.950e-05
*END

*R_NET o_Z\[4\] 1.350e-02
*DRIVER o_Z_reg_4_:Q
*CELL fds2eqd1_hd
*C2_R1_C1 6.750e-03 7.370e-03 6.750e-03 
*LOADS
*RC o_Z\[4\] 9.950e-05
*END

*R_NET o_Z\[3\] 1.350e-02
*DRIVER o_Z_reg_3_:Q
*CELL fds2eqd1_hd
*C2_R1_C1 6.750e-03 7.370e-03 6.750e-03 
*LOADS
*RC o_Z\[3\] 9.950e-05
*END

*R_NET o_Z\[2\] 1.350e-02
*DRIVER o_Z_reg_2_:Q
*CELL fds2eqd1_hd
*C2_R1_C1 6.750e-03 7.370e-03 6.750e-03 
*LOADS
*RC o_Z\[2\] 9.950e-05
*END

*R_NET o_Z\[1\] 1.350e-02
*DRIVER o_Z_reg_1_:Q
*CELL fds2eqd1_hd
*C2_R1_C1 6.750e-03 7.370e-03 6.750e-03 
*LOADS
*RC o_Z\[1\] 9.950e-05
*END

*R_NET o_Z\[0\] 1.350e-02
*DRIVER o_Z_reg_0_:Q
*CELL fds2eqd1_hd
*C2_R1_C1 6.750e-03 7.370e-03 6.750e-03 
*LOADS
*RC o_Z\[0\] 9.950e-05
*END

*R_NET o_Z_STB 2.462e-02
*DRIVER o_Z_STB_reg:Q
*CELL fds2eqd1_hd
*C2_R1_C1 1.231e-02 9.460e-03 1.231e-02 
*LOADS
*RC U320:A 2.329e-04
*RC U330:B 2.329e-04
*RC o_Z_STB 2.329e-04
*END

*R_NET i_Z_ACK 1.073e-02
*DRIVER i_Z_ACK
*CELL NULL
*C2_R1_C1 5.365e-03 9.100e-03 5.365e-03 
*LOADS
*RC U320:B 9.764e-05
*RC U330:C 9.764e-05
*END

*R_NET i_CLK 8.884e-01
*DRIVER i_CLK
*CELL NULL
*C2_R1_C1 4.442e-01 0.000e+00 4.442e-01 
*LOADS
*RC z_reg_31_:CK 0.000e+00
*RC z_reg_30_:CK 0.000e+00
*RC z_reg_29_:CK 0.000e+00
*RC z_reg_28_:CK 0.000e+00
*RC z_reg_27_:CK 0.000e+00
*RC z_reg_26_:CK 0.000e+00
*RC z_reg_25_:CK 0.000e+00
*RC z_reg_24_:CK 0.000e+00
*RC z_reg_23_:CK 0.000e+00
*RC z_reg_0_:CK 0.000e+00
*RC z_reg_1_:CK 0.000e+00
*RC z_reg_2_:CK 0.000e+00
*RC z_reg_3_:CK 0.000e+00
*RC z_reg_4_:CK 0.000e+00
*RC z_reg_5_:CK 0.000e+00
*RC z_reg_6_:CK 0.000e+00
*RC z_reg_7_:CK 0.000e+00
*RC z_reg_8_:CK 0.000e+00
*RC z_reg_9_:CK 0.000e+00
*RC z_reg_10_:CK 0.000e+00
*RC z_reg_11_:CK 0.000e+00
*RC z_reg_12_:CK 0.000e+00
*RC z_reg_13_:CK 0.000e+00
*RC z_reg_14_:CK 0.000e+00
*RC z_reg_15_:CK 0.000e+00
*RC z_reg_16_:CK 0.000e+00
*RC z_reg_17_:CK 0.000e+00
*RC z_reg_18_:CK 0.000e+00
*RC z_reg_19_:CK 0.000e+00
*RC z_reg_20_:CK 0.000e+00
*RC z_reg_21_:CK 0.000e+00
*RC z_reg_22_:CK 0.000e+00
*RC a_e_reg_0_:CK 0.000e+00
*RC a_e_reg_1_:CK 0.000e+00
*RC a_e_reg_2_:CK 0.000e+00
*RC a_e_reg_3_:CK 0.000e+00
*RC a_e_reg_4_:CK 0.000e+00
*RC a_e_reg_5_:CK 0.000e+00
*RC a_e_reg_6_:CK 0.000e+00
*RC a_e_reg_7_:CK 0.000e+00
*RC a_e_reg_8_:CK 0.000e+00
*RC a_m_reg_0_:CK 0.000e+00
*RC a_m_reg_1_:CK 0.000e+00
*RC a_m_reg_2_:CK 0.000e+00
*RC a_m_reg_3_:CK 0.000e+00
*RC a_m_reg_4_:CK 0.000e+00
*RC a_m_reg_5_:CK 0.000e+00
*RC a_m_reg_6_:CK 0.000e+00
*RC a_m_reg_7_:CK 0.000e+00
*RC a_m_reg_8_:CK 0.000e+00
*RC a_m_reg_9_:CK 0.000e+00
*RC a_m_reg_10_:CK 0.000e+00
*RC a_m_reg_11_:CK 0.000e+00
*RC a_m_reg_12_:CK 0.000e+00
*RC a_m_reg_13_:CK 0.000e+00
*RC a_m_reg_14_:CK 0.000e+00
*RC a_m_reg_15_:CK 0.000e+00
*RC a_m_reg_16_:CK 0.000e+00
*RC a_m_reg_17_:CK 0.000e+00
*RC a_m_reg_18_:CK 0.000e+00
*RC a_m_reg_19_:CK 0.000e+00
*RC a_m_reg_20_:CK 0.000e+00
*RC a_m_reg_21_:CK 0.000e+00
*RC a_m_reg_22_:CK 0.000e+00
*RC a_m_reg_23_:CK 0.000e+00
*RC a_m_reg_24_:CK 0.000e+00
*RC a_m_reg_25_:CK 0.000e+00
*RC a_m_reg_26_:CK 0.000e+00
*RC a_m_reg_27_:CK 0.000e+00
*RC a_m_reg_28_:CK 0.000e+00
*RC a_m_reg_29_:CK 0.000e+00
*RC a_m_reg_30_:CK 0.000e+00
*RC a_m_reg_31_:CK 0.000e+00
*RC state_reg_0_:CK 0.000e+00
*RC state_reg_1_:CK 0.000e+00
*RC state_reg_2_:CK 0.000e+00
*RC o_Z_STB_reg:CK 0.000e+00
*RC o_Z_reg_0_:CK 0.000e+00
*RC o_Z_reg_1_:CK 0.000e+00
*RC o_Z_reg_2_:CK 0.000e+00
*RC o_Z_reg_3_:CK 0.000e+00
*RC o_Z_reg_4_:CK 0.000e+00
*RC o_Z_reg_5_:CK 0.000e+00
*RC o_Z_reg_6_:CK 0.000e+00
*RC o_Z_reg_7_:CK 0.000e+00
*RC o_Z_reg_8_:CK 0.000e+00
*RC o_Z_reg_9_:CK 0.000e+00
*RC o_Z_reg_10_:CK 0.000e+00
*RC o_Z_reg_11_:CK 0.000e+00
*RC o_Z_reg_12_:CK 0.000e+00
*RC o_Z_reg_13_:CK 0.000e+00
*RC o_Z_reg_14_:CK 0.000e+00
*RC o_Z_reg_15_:CK 0.000e+00
*RC o_Z_reg_16_:CK 0.000e+00
*RC o_Z_reg_17_:CK 0.000e+00
*RC o_Z_reg_18_:CK 0.000e+00
*RC o_Z_reg_19_:CK 0.000e+00
*RC o_Z_reg_20_:CK 0.000e+00
*RC o_Z_reg_21_:CK 0.000e+00
*RC o_Z_reg_22_:CK 0.000e+00
*RC o_Z_reg_23_:CK 0.000e+00
*RC o_Z_reg_24_:CK 0.000e+00
*RC o_Z_reg_25_:CK 0.000e+00
*RC o_Z_reg_26_:CK 0.000e+00
*RC o_Z_reg_27_:CK 0.000e+00
*RC o_Z_reg_28_:CK 0.000e+00
*RC o_Z_reg_29_:CK 0.000e+00
*RC o_Z_reg_30_:CK 0.000e+00
*RC o_Z_reg_31_:CK 0.000e+00
*RC a_s_reg:CK 0.000e+00
*RC a_reg_0_:CK 0.000e+00
*RC a_reg_1_:CK 0.000e+00
*RC a_reg_2_:CK 0.000e+00
*RC a_reg_3_:CK 0.000e+00
*RC a_reg_4_:CK 0.000e+00
*RC a_reg_5_:CK 0.000e+00
*RC a_reg_6_:CK 0.000e+00
*RC a_reg_7_:CK 0.000e+00
*RC a_reg_8_:CK 0.000e+00
*RC a_reg_9_:CK 0.000e+00
*RC a_reg_10_:CK 0.000e+00
*RC a_reg_11_:CK 0.000e+00
*RC a_reg_12_:CK 0.000e+00
*RC a_reg_13_:CK 0.000e+00
*RC a_reg_14_:CK 0.000e+00
*RC a_reg_15_:CK 0.000e+00
*RC a_reg_16_:CK 0.000e+00
*RC a_reg_17_:CK 0.000e+00
*RC a_reg_18_:CK 0.000e+00
*RC a_reg_19_:CK 0.000e+00
*RC a_reg_20_:CK 0.000e+00
*RC a_reg_21_:CK 0.000e+00
*RC a_reg_22_:CK 0.000e+00
*RC a_reg_23_:CK 0.000e+00
*RC a_reg_24_:CK 0.000e+00
*RC a_reg_25_:CK 0.000e+00
*RC a_reg_26_:CK 0.000e+00
*RC a_reg_27_:CK 0.000e+00
*RC a_reg_28_:CK 0.000e+00
*RC a_reg_29_:CK 0.000e+00
*RC a_reg_30_:CK 0.000e+00
*RC a_reg_31_:CK 0.000e+00
*RC o_A_ACK_reg:CK 0.000e+00
*END

*R_NET state\[2\] 9.960e-03
*DRIVER state_reg_2_:Q
*CELL fds2eqd1_hd
*C2_R1_C1 4.980e-03 9.100e-03 4.980e-03 
*LOADS
*RC U368:A 9.064e-05
*RC U369:A 9.064e-05
*END

*R_NET state\[1\] 9.640e-03
*DRIVER state_reg_1_:Q
*CELL fds2eqd1_hd
*C2_R1_C1 4.820e-03 9.100e-03 4.820e-03 
*LOADS
*RC U94:A 8.772e-05
*RC U370:A 8.772e-05
*END

*R_NET state\[0\] 4.040e-02
*DRIVER state_reg_0_:Q
*CELL fds2eqd1_hd
*C2_R1_C1 2.020e-02 1.094e-02 2.020e-02 
*LOADS
*RC U175:A 4.420e-04
*RC U333:A 4.420e-04
*RC U358:A 4.420e-04
*RC U371:A 4.420e-04
*END

*R_NET a\[31\] 4.550e-03
*DRIVER a_reg_31_:Q
*CELL fds2eqd1_hd
*C2_R1_C1 2.275e-03 7.370e-03 2.275e-03 
*LOADS
*RC a_s_reg:D 3.353e-05
*END

*R_NET a\[30\] 1.615e-02
*DRIVER a_reg_30_:Q
*CELL fds2eqd1_hd
*C2_R1_C1 8.075e-03 9.460e-03 8.075e-03 
*LOADS
*RC DP_OP_15_125_2165/U13:A 1.528e-04
*RC DP_OP_15_125_2165/U14:A 1.528e-04
*RC DP_OP_15_125_2165/U15:A 1.528e-04
*END

*R_NET a\[29\] 7.170e-03
*DRIVER a_reg_29_:Q
*CELL fds2eqd1_hd
*C2_R1_C1 3.585e-03 7.370e-03 3.585e-03 
*LOADS
*RC DP_OP_15_125_2165/U4:A 5.284e-05
*END

*R_NET a\[28\] 7.170e-03
*DRIVER a_reg_28_:Q
*CELL fds2eqd1_hd
*C2_R1_C1 3.585e-03 7.370e-03 3.585e-03 
*LOADS
*RC DP_OP_15_125_2165/U5:A 5.284e-05
*END

*R_NET a\[27\] 7.170e-03
*DRIVER a_reg_27_:Q
*CELL fds2eqd1_hd
*C2_R1_C1 3.585e-03 7.370e-03 3.585e-03 
*LOADS
*RC DP_OP_15_125_2165/U6:A 5.284e-05
*END

*R_NET a\[26\] 7.170e-03
*DRIVER a_reg_26_:Q
*CELL fds2eqd1_hd
*C2_R1_C1 3.585e-03 7.370e-03 3.585e-03 
*LOADS
*RC DP_OP_15_125_2165/U7:A 5.284e-05
*END

*R_NET a\[25\] 7.170e-03
*DRIVER a_reg_25_:Q
*CELL fds2eqd1_hd
*C2_R1_C1 3.585e-03 7.370e-03 3.585e-03 
*LOADS
*RC DP_OP_15_125_2165/U8:A 5.284e-05
*END

*R_NET a\[24\] 7.170e-03
*DRIVER a_reg_24_:Q
*CELL fds2eqd1_hd
*C2_R1_C1 3.585e-03 7.370e-03 3.585e-03 
*LOADS
*RC DP_OP_15_125_2165/U9:A 5.284e-05
*END

*R_NET a\[23\] 1.222e-02
*DRIVER a_reg_23_:Q
*CELL fds2eqd1_hd
*C2_R1_C1 6.110e-03 9.100e-03 6.110e-03 
*LOADS
*RC DP_OP_15_125_2165/U17:A 1.112e-04
*RC DP_OP_15_125_2165/U9:B 1.112e-04
*END

*R_NET a\[22\] 4.510e-03
*DRIVER a_reg_22_:Q
*CELL fds2eqd1_hd
*C2_R1_C1 2.255e-03 7.370e-03 2.255e-03 
*LOADS
*RC U357:B 3.324e-05
*END

*R_NET a\[21\] 4.670e-03
*DRIVER a_reg_21_:Q
*CELL fds2eqd1_hd
*C2_R1_C1 2.335e-03 7.370e-03 2.335e-03 
*LOADS
*RC U159:D 3.442e-05
*END

*R_NET a\[20\] 4.670e-03
*DRIVER a_reg_20_:Q
*CELL fds2eqd1_hd
*C2_R1_C1 2.335e-03 7.370e-03 2.335e-03 
*LOADS
*RC U158:D 3.442e-05
*END

*R_NET a\[19\] 4.670e-03
*DRIVER a_reg_19_:Q
*CELL fds2eqd1_hd
*C2_R1_C1 2.335e-03 7.370e-03 2.335e-03 
*LOADS
*RC U157:D 3.442e-05
*END

*R_NET a\[18\] 4.670e-03
*DRIVER a_reg_18_:Q
*CELL fds2eqd1_hd
*C2_R1_C1 2.335e-03 7.370e-03 2.335e-03 
*LOADS
*RC U156:D 3.442e-05
*END

*R_NET a\[17\] 4.670e-03
*DRIVER a_reg_17_:Q
*CELL fds2eqd1_hd
*C2_R1_C1 2.335e-03 7.370e-03 2.335e-03 
*LOADS
*RC U155:D 3.442e-05
*END

*R_NET a\[16\] 4.670e-03
*DRIVER a_reg_16_:Q
*CELL fds2eqd1_hd
*C2_R1_C1 2.335e-03 7.370e-03 2.335e-03 
*LOADS
*RC U154:D 3.442e-05
*END

*R_NET a\[15\] 4.670e-03
*DRIVER a_reg_15_:Q
*CELL fds2eqd1_hd
*C2_R1_C1 2.335e-03 7.370e-03 2.335e-03 
*LOADS
*RC U153:D 3.442e-05
*END

*R_NET a\[14\] 4.670e-03
*DRIVER a_reg_14_:Q
*CELL fds2eqd1_hd
*C2_R1_C1 2.335e-03 7.370e-03 2.335e-03 
*LOADS
*RC U152:D 3.442e-05
*END

*R_NET a\[13\] 4.670e-03
*DRIVER a_reg_13_:Q
*CELL fds2eqd1_hd
*C2_R1_C1 2.335e-03 7.370e-03 2.335e-03 
*LOADS
*RC U151:D 3.442e-05
*END

*R_NET a\[12\] 4.670e-03
*DRIVER a_reg_12_:Q
*CELL fds2eqd1_hd
*C2_R1_C1 2.335e-03 7.370e-03 2.335e-03 
*LOADS
*RC U150:D 3.442e-05
*END

*R_NET a\[11\] 4.670e-03
*DRIVER a_reg_11_:Q
*CELL fds2eqd1_hd
*C2_R1_C1 2.335e-03 7.370e-03 2.335e-03 
*LOADS
*RC U149:D 3.442e-05
*END

*R_NET a\[10\] 4.670e-03
*DRIVER a_reg_10_:Q
*CELL fds2eqd1_hd
*C2_R1_C1 2.335e-03 7.370e-03 2.335e-03 
*LOADS
*RC U148:D 3.442e-05
*END

*R_NET a\[9\] 4.670e-03
*DRIVER a_reg_9_:Q
*CELL fds2eqd1_hd
*C2_R1_C1 2.335e-03 7.370e-03 2.335e-03 
*LOADS
*RC U147:D 3.442e-05
*END

*R_NET a\[8\] 4.670e-03
*DRIVER a_reg_8_:Q
*CELL fds2eqd1_hd
*C2_R1_C1 2.335e-03 7.370e-03 2.335e-03 
*LOADS
*RC U146:D 3.442e-05
*END

*R_NET a\[7\] 4.670e-03
*DRIVER a_reg_7_:Q
*CELL fds2eqd1_hd
*C2_R1_C1 2.335e-03 7.370e-03 2.335e-03 
*LOADS
*RC U145:D 3.442e-05
*END

*R_NET a\[6\] 4.670e-03
*DRIVER a_reg_6_:Q
*CELL fds2eqd1_hd
*C2_R1_C1 2.335e-03 7.370e-03 2.335e-03 
*LOADS
*RC U144:D 3.442e-05
*END

*R_NET a\[5\] 4.670e-03
*DRIVER a_reg_5_:Q
*CELL fds2eqd1_hd
*C2_R1_C1 2.335e-03 7.370e-03 2.335e-03 
*LOADS
*RC U143:D 3.442e-05
*END

*R_NET a\[4\] 4.670e-03
*DRIVER a_reg_4_:Q
*CELL fds2eqd1_hd
*C2_R1_C1 2.335e-03 7.370e-03 2.335e-03 
*LOADS
*RC U142:D 3.442e-05
*END

*R_NET a\[3\] 4.670e-03
*DRIVER a_reg_3_:Q
*CELL fds2eqd1_hd
*C2_R1_C1 2.335e-03 7.370e-03 2.335e-03 
*LOADS
*RC U141:D 3.442e-05
*END

*R_NET a\[2\] 4.670e-03
*DRIVER a_reg_2_:Q
*CELL fds2eqd1_hd
*C2_R1_C1 2.335e-03 7.370e-03 2.335e-03 
*LOADS
*RC U140:D 3.442e-05
*END

*R_NET a\[1\] 4.670e-03
*DRIVER a_reg_1_:Q
*CELL fds2eqd1_hd
*C2_R1_C1 2.335e-03 7.370e-03 2.335e-03 
*LOADS
*RC U139:D 3.442e-05
*END

*R_NET a\[0\] 4.670e-03
*DRIVER a_reg_0_:Q
*CELL fds2eqd1_hd
*C2_R1_C1 2.335e-03 7.370e-03 2.335e-03 
*LOADS
*RC U138:D 3.442e-05
*END

*R_NET a_e\[8\] 1.673e-02
*DRIVER a_e_reg_8_:Q
*CELL fds2eqd1_hd
*C2_R1_C1 8.365e-03 9.460e-03 8.365e-03 
*LOADS
*RC U335:C 1.583e-04
*RC U340:A 1.583e-04
*RC DP_OP_16_126_2421/U12:A 1.583e-04
*END

*R_NET a_e\[7\] 1.788e-02
*DRIVER a_e_reg_7_:Q
*CELL fds2eqd1_hd
*C2_R1_C1 8.940e-03 9.460e-03 8.940e-03 
*LOADS
*RC U339:A 1.691e-04
*RC U353:C 1.691e-04
*RC DP_OP_16_126_2421/U2:A 1.691e-04
*END

*R_NET a_e\[6\] 1.203e-02
*DRIVER a_e_reg_6_:Q
*CELL fds2eqd1_hd
*C2_R1_C1 6.015e-03 9.100e-03 6.015e-03 
*LOADS
*RC U355:B 1.095e-04
*RC DP_OP_16_126_2421/U3:A 1.095e-04
*END

*R_NET a_e\[5\] 1.191e-02
*DRIVER a_e_reg_5_:Q
*CELL fds2eqd1_hd
*C2_R1_C1 5.955e-03 9.100e-03 5.955e-03 
*LOADS
*RC U355:A 1.084e-04
*RC DP_OP_16_126_2421/U4:A 1.084e-04
*END

*R_NET a_e\[4\] 1.672e-02
*DRIVER a_e_reg_4_:Q
*CELL fds2eqd1_hd
*C2_R1_C1 8.360e-03 9.460e-03 8.360e-03 
*LOADS
*RC U337:C 1.582e-04
*RC U356:C 1.582e-04
*RC DP_OP_16_126_2421/U5:A 1.582e-04
*END

*R_NET a_e\[3\] 1.830e-02
*DRIVER a_e_reg_3_:Q
*CELL fds2eqd1_hd
*C2_R1_C1 9.150e-03 9.460e-03 9.150e-03 
*LOADS
*RC U337:A 1.731e-04
*RC U353:A 1.731e-04
*RC DP_OP_16_126_2421/U6:A 1.731e-04
*END

*R_NET a_e\[2\] 1.745e-02
*DRIVER a_e_reg_2_:Q
*CELL fds2eqd1_hd
*C2_R1_C1 8.725e-03 9.460e-03 8.725e-03 
*LOADS
*RC U336:A 1.651e-04
*RC U356:A 1.651e-04
*RC DP_OP_16_126_2421/U7:A 1.651e-04
*END

*R_NET a_e\[1\] 1.680e-02
*DRIVER a_e_reg_1_:Q
*CELL fds2eqd1_hd
*C2_R1_C1 8.400e-03 9.460e-03 8.400e-03 
*LOADS
*RC U337:B 1.589e-04
*RC U356:B 1.589e-04
*RC DP_OP_16_126_2421/U8:A 1.589e-04
*END

*R_NET a_e\[0\] 2.339e-02
*DRIVER a_e_reg_0_:Q
*CELL fds2eqd1_hd
*C2_R1_C1 1.169e-02 1.094e-02 1.169e-02 
*LOADS
*RC U338:A 2.559e-04
*RC U356:D 2.559e-04
*RC DP_OP_16_126_2421/U13:A 2.559e-04
*RC DP_OP_16_126_2421/U8:B 2.559e-04
*END

*R_NET a_m\[31\] 1.655e-02
*DRIVER a_m_reg_31_:Q
*CELL fds2eqd1_hd
*C2_R1_C1 8.275e-03 9.460e-03 8.275e-03 
*LOADS
*RC U93:B 1.566e-04
*RC U349:A 1.566e-04
*RC sub_x_3/U100:B 1.566e-04
*END

*R_NET a_m\[30\] 2.122e-02
*DRIVER a_m_reg_30_:Q
*CELL fds2eqd1_hd
*C2_R1_C1 1.061e-02 1.094e-02 1.061e-02 
*LOADS
*RC U98:C 2.321e-04
*RC U159:B 2.321e-04
*RC U351:A 2.321e-04
*RC sub_x_3/U98:A 2.321e-04
*END

*R_NET a_m\[29\] 2.120e-02
*DRIVER a_m_reg_29_:Q
*CELL fds2eqd1_hd
*C2_R1_C1 1.060e-02 1.094e-02 1.060e-02 
*LOADS
*RC U99:D 2.319e-04
*RC U158:B 2.319e-04
*RC U351:B 2.319e-04
*RC sub_x_3/U97:A 2.319e-04
*END

*R_NET a_m\[28\] 2.121e-02
*DRIVER a_m_reg_28_:Q
*CELL fds2eqd1_hd
*C2_R1_C1 1.060e-02 1.094e-02 1.060e-02 
*LOADS
*RC U100:D 2.320e-04
*RC U157:B 2.320e-04
*RC U352:A 2.320e-04
*RC sub_x_3/U96:A 2.320e-04
*END

*R_NET a_m\[27\] 2.120e-02
*DRIVER a_m_reg_27_:Q
*CELL fds2eqd1_hd
*C2_R1_C1 1.060e-02 1.094e-02 1.060e-02 
*LOADS
*RC U101:D 2.319e-04
*RC U156:B 2.319e-04
*RC U352:B 2.319e-04
*RC sub_x_3/U95:A 2.319e-04
*END

*R_NET a_m\[26\] 2.123e-02
*DRIVER a_m_reg_26_:Q
*CELL fds2eqd1_hd
*C2_R1_C1 1.061e-02 1.094e-02 1.061e-02 
*LOADS
*RC U102:D 2.323e-04
*RC U155:B 2.323e-04
*RC U352:C 2.323e-04
*RC sub_x_3/U94:A 2.323e-04
*END

*R_NET a_m\[25\] 2.134e-02
*DRIVER a_m_reg_25_:Q
*CELL fds2eqd1_hd
*C2_R1_C1 1.067e-02 1.094e-02 1.067e-02 
*LOADS
*RC U103:D 2.335e-04
*RC U154:B 2.335e-04
*RC U352:D 2.335e-04
*RC sub_x_3/U93:A 2.335e-04
*END

*R_NET a_m\[24\] 2.121e-02
*DRIVER a_m_reg_24_:Q
*CELL fds2eqd1_hd
*C2_R1_C1 1.060e-02 1.094e-02 1.060e-02 
*LOADS
*RC U104:D 2.320e-04
*RC U153:B 2.320e-04
*RC U346:A 2.320e-04
*RC sub_x_3/U92:A 2.320e-04
*END

*R_NET a_m\[23\] 2.120e-02
*DRIVER a_m_reg_23_:Q
*CELL fds2eqd1_hd
*C2_R1_C1 1.060e-02 1.094e-02 1.060e-02 
*LOADS
*RC U105:D 2.319e-04
*RC U152:B 2.319e-04
*RC U346:B 2.319e-04
*RC sub_x_3/U91:A 2.319e-04
*END

*R_NET a_m\[22\] 2.123e-02
*DRIVER a_m_reg_22_:Q
*CELL fds2eqd1_hd
*C2_R1_C1 1.061e-02 1.094e-02 1.061e-02 
*LOADS
*RC U128:D 2.323e-04
*RC U151:B 2.323e-04
*RC U346:C 2.323e-04
*RC sub_x_3/U90:A 2.323e-04
*END

*R_NET a_m\[21\] 2.134e-02
*DRIVER a_m_reg_21_:Q
*CELL fds2eqd1_hd
*C2_R1_C1 1.067e-02 1.094e-02 1.067e-02 
*LOADS
*RC U127:D 2.335e-04
*RC U150:B 2.335e-04
*RC U346:D 2.335e-04
*RC sub_x_3/U89:A 2.335e-04
*END

*R_NET a_m\[20\] 2.121e-02
*DRIVER a_m_reg_20_:Q
*CELL fds2eqd1_hd
*C2_R1_C1 1.060e-02 1.094e-02 1.060e-02 
*LOADS
*RC U126:D 2.320e-04
*RC U149:B 2.320e-04
*RC U347:A 2.320e-04
*RC sub_x_3/U88:A 2.320e-04
*END

*R_NET a_m\[19\] 2.120e-02
*DRIVER a_m_reg_19_:Q
*CELL fds2eqd1_hd
*C2_R1_C1 1.060e-02 1.094e-02 1.060e-02 
*LOADS
*RC U125:D 2.319e-04
*RC U148:B 2.319e-04
*RC U347:B 2.319e-04
*RC sub_x_3/U87:A 2.319e-04
*END

*R_NET a_m\[18\] 2.123e-02
*DRIVER a_m_reg_18_:Q
*CELL fds2eqd1_hd
*C2_R1_C1 1.061e-02 1.094e-02 1.061e-02 
*LOADS
*RC U124:D 2.323e-04
*RC U147:B 2.323e-04
*RC U347:C 2.323e-04
*RC sub_x_3/U86:A 2.323e-04
*END

*R_NET a_m\[17\] 2.134e-02
*DRIVER a_m_reg_17_:Q
*CELL fds2eqd1_hd
*C2_R1_C1 1.067e-02 1.094e-02 1.067e-02 
*LOADS
*RC U123:D 2.335e-04
*RC U146:B 2.335e-04
*RC U347:D 2.335e-04
*RC sub_x_3/U85:A 2.335e-04
*END

*R_NET a_m\[16\] 2.121e-02
*DRIVER a_m_reg_16_:Q
*CELL fds2eqd1_hd
*C2_R1_C1 1.060e-02 1.094e-02 1.060e-02 
*LOADS
*RC U122:D 2.320e-04
*RC U145:B 2.320e-04
*RC U344:A 2.320e-04
*RC sub_x_3/U84:A 2.320e-04
*END

*R_NET a_m\[15\] 2.120e-02
*DRIVER a_m_reg_15_:Q
*CELL fds2eqd1_hd
*C2_R1_C1 1.060e-02 1.094e-02 1.060e-02 
*LOADS
*RC U121:D 2.319e-04
*RC U144:B 2.319e-04
*RC U344:B 2.319e-04
*RC sub_x_3/U83:A 2.319e-04
*END

*R_NET a_m\[14\] 2.123e-02
*DRIVER a_m_reg_14_:Q
*CELL fds2eqd1_hd
*C2_R1_C1 1.061e-02 1.094e-02 1.061e-02 
*LOADS
*RC U120:D 2.323e-04
*RC U143:B 2.323e-04
*RC U344:C 2.323e-04
*RC sub_x_3/U82:A 2.323e-04
*END

*R_NET a_m\[13\] 2.134e-02
*DRIVER a_m_reg_13_:Q
*CELL fds2eqd1_hd
*C2_R1_C1 1.067e-02 1.094e-02 1.067e-02 
*LOADS
*RC U119:D 2.335e-04
*RC U142:B 2.335e-04
*RC U344:D 2.335e-04
*RC sub_x_3/U81:A 2.335e-04
*END

*R_NET a_m\[12\] 2.121e-02
*DRIVER a_m_reg_12_:Q
*CELL fds2eqd1_hd
*C2_R1_C1 1.060e-02 1.094e-02 1.060e-02 
*LOADS
*RC U118:D 2.320e-04
*RC U141:B 2.320e-04
*RC U345:A 2.320e-04
*RC sub_x_3/U80:A 2.320e-04
*END

*R_NET a_m\[11\] 2.120e-02
*DRIVER a_m_reg_11_:Q
*CELL fds2eqd1_hd
*C2_R1_C1 1.060e-02 1.094e-02 1.060e-02 
*LOADS
*RC U117:D 2.319e-04
*RC U140:B 2.319e-04
*RC U345:B 2.319e-04
*RC sub_x_3/U79:A 2.319e-04
*END

*R_NET a_m\[10\] 2.123e-02
*DRIVER a_m_reg_10_:Q
*CELL fds2eqd1_hd
*C2_R1_C1 1.061e-02 1.094e-02 1.061e-02 
*LOADS
*RC U116:D 2.323e-04
*RC U139:B 2.323e-04
*RC U345:C 2.323e-04
*RC sub_x_3/U78:A 2.323e-04
*END

*R_NET a_m\[9\] 2.123e-02
*DRIVER a_m_reg_9_:Q
*CELL fds2eqd1_hd
*C2_R1_C1 1.061e-02 1.094e-02 1.061e-02 
*LOADS
*RC U115:D 2.323e-04
*RC U138:B 2.323e-04
*RC U351:C 2.323e-04
*RC sub_x_3/U77:A 2.323e-04
*END

*R_NET a_m\[8\] 2.130e-02
*DRIVER a_m_reg_8_:Q
*CELL fds2eqd1_hd
*C2_R1_C1 1.065e-02 1.094e-02 1.065e-02 
*LOADS
*RC U114:D 2.330e-04
*RC U345:D 2.330e-04
*RC U359:B 2.330e-04
*RC sub_x_3/U76:A 2.330e-04
*END

*R_NET a_m\[7\] 2.135e-02
*DRIVER a_m_reg_7_:Q
*CELL fds2eqd1_hd
*C2_R1_C1 1.068e-02 1.094e-02 1.068e-02 
*LOADS
*RC U113:D 2.336e-04
*RC U342:A 2.336e-04
*RC U360:AN 2.336e-04
*RC sub_x_3/U75:A 2.336e-04
*END

*R_NET a_m\[6\] 2.134e-02
*DRIVER a_m_reg_6_:Q
*CELL fds2eqd1_hd
*C2_R1_C1 1.067e-02 1.094e-02 1.067e-02 
*LOADS
*RC U112:D 2.335e-04
*RC U342:B 2.335e-04
*RC U361:AN 2.335e-04
*RC sub_x_3/U74:A 2.335e-04
*END

*R_NET a_m\[5\] 2.135e-02
*DRIVER a_m_reg_5_:Q
*CELL fds2eqd1_hd
*C2_R1_C1 1.068e-02 1.094e-02 1.068e-02 
*LOADS
*RC U111:D 2.336e-04
*RC U350:A 2.336e-04
*RC U362:AN 2.336e-04