*SPEF "IEEE 1481-1999"
*DESIGN "iir_hpf"
*DATE "Wed Jun 17 12:55:32 2020"
*VENDOR "SYNOPSYS INC"
*PROGRAM "Synopsys Design Compiler cmos"
*VERSION "F-2011.09-SP5-3"
*DESIGN_FLOW "SYNTHESIS"
*DIVIDER /
*DELIMITER :
*BUS_DELIMITER []
*T_UNIT 1.0 NS
*C_UNIT 1.0 PF
*R_UNIT 1.0 KOHM
*L_UNIT 1.0 HENRY

*PORTS

i_X_DATA\[31\] I *L 0.000e+00 *S 0.000e+00 0.000e+00 
i_X_DATA\[30\] I *L 0.000e+00 *S 0.000e+00 0.000e+00 
i_X_DATA\[29\] I *L 0.000e+00 *S 0.000e+00 0.000e+00 
i_X_DATA\[28\] I *L 0.000e+00 *S 0.000e+00 0.000e+00 
i_X_DATA\[27\] I *L 0.000e+00 *S 0.000e+00 0.000e+00 
i_X_DATA\[26\] I *L 0.000e+00 *S 0.000e+00 0.000e+00 
i_X_DATA\[25\] I *L 0.000e+00 *S 0.000e+00 0.000e+00 
i_X_DATA\[24\] I *L 0.000e+00 *S 0.000e+00 0.000e+00 
i_X_DATA\[23\] I *L 0.000e+00 *S 0.000e+00 0.000e+00 
i_X_DATA\[22\] I *L 0.000e+00 *S 0.000e+00 0.000e+00 
i_X_DATA\[21\] I *L 0.000e+00 *S 0.000e+00 0.000e+00 
i_X_DATA\[20\] I *L 0.000e+00 *S 0.000e+00 0.000e+00 
i_X_DATA\[19\] I *L 0.000e+00 *S 0.000e+00 0.000e+00 
i_X_DATA\[18\] I *L 0.000e+00 *S 0.000e+00 0.000e+00 
i_X_DATA\[17\] I *L 0.000e+00 *S 0.000e+00 0.000e+00 
i_X_DATA\[16\] I *L 0.000e+00 *S 0.000e+00 0.000e+00 
i_X_DATA\[15\] I *L 0.000e+00 *S 0.000e+00 0.000e+00 
i_X_DATA\[14\] I *L 0.000e+00 *S 0.000e+00 0.000e+00 
i_X_DATA\[13\] I *L 0.000e+00 *S 0.000e+00 0.000e+00 
i_X_DATA\[12\] I *L 0.000e+00 *S 0.000e+00 0.000e+00 
i_X_DATA\[11\] I *L 0.000e+00 *S 0.000e+00 0.000e+00 
i_X_DATA\[10\] I *L 0.000e+00 *S 0.000e+00 0.000e+00 
i_X_DATA\[9\] I *L 0.000e+00 *S 0.000e+00 0.000e+00 
i_X_DATA\[8\] I *L 0.000e+00 *S 0.000e+00 0.000e+00 
i_X_DATA\[7\] I *L 0.000e+00 *S 0.000e+00 0.000e+00 
i_X_DATA\[6\] I *L 0.000e+00 *S 0.000e+00 0.000e+00 
i_X_DATA\[5\] I *L 0.000e+00 *S 0.000e+00 0.000e+00 
i_X_DATA\[4\] I *L 0.000e+00 *S 0.000e+00 0.000e+00 
i_X_DATA\[3\] I *L 0.000e+00 *S 0.000e+00 0.000e+00 
i_X_DATA\[2\] I *L 0.000e+00 *S 0.000e+00 0.000e+00 
i_X_DATA\[1\] I *L 0.000e+00 *S 0.000e+00 0.000e+00 
i_X_DATA\[0\] I *L 0.000e+00 *S 0.000e+00 0.000e+00 
i_X_DATA_VALID I *L 0.000e+00 *S 0.000e+00 0.000e+00 
o_X_DATA_READY O *L 1.035e-02 *S 4.133e-01 2.804e-01 
o_Y_DATA\[31\] O *L 1.035e-02 *S 3.517e-01 3.372e-01 
o_Y_DATA\[30\] O *L 1.035e-02 *S 3.435e-01 3.308e-01 
o_Y_DATA\[29\] O *L 1.035e-02 *S 3.435e-01 3.308e-01 
o_Y_DATA\[28\] O *L 1.035e-02 *S 3.435e-01 3.308e-01 
o_Y_DATA\[27\] O *L 1.035e-02 *S 3.435e-01 3.308e-01 
o_Y_DATA\[26\] O *L 1.035e-02 *S 3.435e-01 3.308e-01 
o_Y_DATA\[25\] O *L 1.035e-02 *S 3.435e-01 3.308e-01 
o_Y_DATA\[24\] O *L 1.035e-02 *S 3.435e-01 3.308e-01 
o_Y_DATA\[23\] O *L 1.035e-02 *S 3.435e-01 3.308e-01 
o_Y_DATA\[22\] O *L 1.035e-02 *S 3.435e-01 3.308e-01 
o_Y_DATA\[21\] O *L 1.035e-02 *S 3.435e-01 3.308e-01 
o_Y_DATA\[20\] O *L 1.035e-02 *S 3.435e-01 3.308e-01 
o_Y_DATA\[19\] O *L 1.035e-02 *S 3.435e-01 3.308e-01 
o_Y_DATA\[18\] O *L 1.035e-02 *S 3.435e-01 3.308e-01 
o_Y_DATA\[17\] O *L 1.035e-02 *S 3.435e-01 3.308e-01 
o_Y_DATA\[16\] O *L 1.035e-02 *S 3.435e-01 3.308e-01 
o_Y_DATA\[15\] O *L 1.035e-02 *S 3.435e-01 3.308e-01 
o_Y_DATA\[14\] O *L 1.035e-02 *S 3.435e-01 3.308e-01 
o_Y_DATA\[13\] O *L 1.035e-02 *S 3.435e-01 3.308e-01 
o_Y_DATA\[12\] O *L 1.035e-02 *S 3.435e-01 3.308e-01 
o_Y_DATA\[11\] O *L 1.035e-02 *S 3.435e-01 3.308e-01 
o_Y_DATA\[10\] O *L 1.035e-02 *S 3.435e-01 3.308e-01 
o_Y_DATA\[9\] O *L 1.035e-02 *S 3.435e-01 3.308e-01 
o_Y_DATA\[8\] O *L 1.035e-02 *S 3.435e-01 3.308e-01 
o_Y_DATA\[7\] O *L 1.035e-02 *S 3.435e-01 3.308e-01 
o_Y_DATA\[6\] O *L 1.035e-02 *S 3.435e-01 3.308e-01 
o_Y_DATA\[5\] O *L 1.035e-02 *S 3.435e-01 3.308e-01 
o_Y_DATA\[4\] O *L 1.035e-02 *S 3.435e-01 3.308e-01 
o_Y_DATA\[3\] O *L 1.035e-02 *S 3.435e-01 3.308e-01 
o_Y_DATA\[2\] O *L 1.035e-02 *S 3.435e-01 3.308e-01 
o_Y_DATA\[1\] O *L 1.035e-02 *S 3.435e-01 3.308e-01 
o_Y_DATA\[0\] O *L 1.035e-02 *S 3.435e-01 3.308e-01 
o_Y_DATA_VALID O *L 1.035e-02 *S 2.586e-01 2.636e-01 
i_Y_ACK I *L 0.000e+00 *S 0.000e+00 0.000e+00 
i_CLK I *L 0.000e+00 *S 0.000e+00 0.000e+00 
i_RSTN I *L 0.000e+00 *S 0.000e+00 0.000e+00 

*R_NET i_X_DATA\[31\] 5.290e-03
*DRIVER i_X_DATA\[31\]
*CELL NULL
*C2_R1_C1 2.645e-03 7.940e-03 2.645e-03 
*LOADS
*RC U638:B 4.200e-05
*END

*R_NET i_X_DATA\[30\] 5.290e-03
*DRIVER i_X_DATA\[30\]
*CELL NULL
*C2_R1_C1 2.645e-03 7.940e-03 2.645e-03 
*LOADS
*RC U637:B 4.200e-05
*END

*R_NET i_X_DATA\[29\] 5.290e-03
*DRIVER i_X_DATA\[29\]
*CELL NULL
*C2_R1_C1 2.645e-03 7.940e-03 2.645e-03 
*LOADS
*RC U636:B 4.200e-05
*END

*R_NET i_X_DATA\[28\] 5.290e-03
*DRIVER i_X_DATA\[28\]
*CELL NULL
*C2_R1_C1 2.645e-03 7.940e-03 2.645e-03 
*LOADS
*RC U635:B 4.200e-05
*END

*R_NET i_X_DATA\[27\] 5.290e-03
*DRIVER i_X_DATA\[27\]
*CELL NULL
*C2_R1_C1 2.645e-03 7.940e-03 2.645e-03 
*LOADS
*RC U634:B 4.200e-05
*END

*R_NET i_X_DATA\[26\] 5.290e-03
*DRIVER i_X_DATA\[26\]
*CELL NULL
*C2_R1_C1 2.645e-03 7.940e-03 2.645e-03 
*LOADS
*RC U633:B 4.200e-05
*END

*R_NET i_X_DATA\[25\] 5.290e-03
*DRIVER i_X_DATA\[25\]
*CELL NULL
*C2_R1_C1 2.645e-03 7.940e-03 2.645e-03 
*LOADS
*RC U632:B 4.200e-05
*END

*R_NET i_X_DATA\[24\] 5.290e-03
*DRIVER i_X_DATA\[24\]
*CELL NULL
*C2_R1_C1 2.645e-03 7.940e-03 2.645e-03 
*LOADS
*RC U631:B 4.200e-05
*END

*R_NET i_X_DATA\[23\] 5.290e-03
*DRIVER i_X_DATA\[23\]
*CELL NULL
*C2_R1_C1 2.645e-03 7.940e-03 2.645e-03 
*LOADS
*RC U630:B 4.200e-05
*END

*R_NET i_X_DATA\[22\] 5.290e-03
*DRIVER i_X_DATA\[22\]
*CELL NULL
*C2_R1_C1 2.645e-03 7.940e-03 2.645e-03 
*LOADS
*RC U629:B 4.200e-05
*END

*R_NET i_X_DATA\[21\] 5.290e-03
*DRIVER i_X_DATA\[21\]
*CELL NULL
*C2_R1_C1 2.645e-03 7.940e-03 2.645e-03 
*LOADS
*RC U628:B 4.200e-05
*END

*R_NET i_X_DATA\[20\] 5.290e-03
*DRIVER i_X_DATA\[20\]
*CELL NULL
*C2_R1_C1 2.645e-03 7.940e-03 2.645e-03 
*LOADS
*RC U627:B 4.200e-05
*END

*R_NET i_X_DATA\[19\] 5.290e-03
*DRIVER i_X_DATA\[19\]
*CELL NULL
*C2_R1_C1 2.645e-03 7.940e-03 2.645e-03 
*LOADS
*RC U626:B 4.200e-05
*END

*R_NET i_X_DATA\[18\] 5.290e-03
*DRIVER i_X_DATA\[18\]
*CELL NULL
*C2_R1_C1 2.645e-03 7.940e-03 2.645e-03 
*LOADS
*RC U625:B 4.200e-05
*END

*R_NET i_X_DATA\[17\] 5.290e-03
*DRIVER i_X_DATA\[17\]
*CELL NULL
*C2_R1_C1 2.645e-03 7.940e-03 2.645e-03 
*LOADS
*RC U624:B 4.200e-05
*END

*R_NET i_X_DATA\[16\] 5.290e-03
*DRIVER i_X_DATA\[16\]
*CELL NULL
*C2_R1_C1 2.645e-03 7.940e-03 2.645e-03 
*LOADS
*RC U623:B 4.200e-05
*END

*R_NET i_X_DATA\[15\] 5.290e-03
*DRIVER i_X_DATA\[15\]
*CELL NULL
*C2_R1_C1 2.645e-03 7.940e-03 2.645e-03 
*LOADS
*RC U622:B 4.200e-05
*END

*R_NET i_X_DATA\[14\] 5.290e-03
*DRIVER i_X_DATA\[14\]
*CELL NULL
*C2_R1_C1 2.645e-03 7.940e-03 2.645e-03 
*LOADS
*RC U621:B 4.200e-05
*END

*R_NET i_X_DATA\[13\] 5.290e-03
*DRIVER i_X_DATA\[13\]
*CELL NULL
*C2_R1_C1 2.645e-03 7.940e-03 2.645e-03 
*LOADS
*RC U620:B 4.200e-05
*END

*R_NET i_X_DATA\[12\] 5.290e-03
*DRIVER i_X_DATA\[12\]
*CELL NULL
*C2_R1_C1 2.645e-03 7.940e-03 2.645e-03 
*LOADS
*RC U619:B 4.200e-05
*END

*R_NET i_X_DATA\[11\] 5.290e-03
*DRIVER i_X_DATA\[11\]
*CELL NULL
*C2_R1_C1 2.645e-03 7.940e-03 2.645e-03 
*LOADS
*RC U618:B 4.200e-05
*END

*R_NET i_X_DATA\[10\] 5.290e-03
*DRIVER i_X_DATA\[10\]
*CELL NULL
*C2_R1_C1 2.645e-03 7.940e-03 2.645e-03 
*LOADS
*RC U617:B 4.200e-05
*END

*R_NET i_X_DATA\[9\] 5.290e-03
*DRIVER i_X_DATA\[9\]
*CELL NULL
*C2_R1_C1 2.645e-03 7.940e-03 2.645e-03 
*LOADS
*RC U616:B 4.200e-05
*END

*R_NET i_X_DATA\[8\] 5.290e-03
*DRIVER i_X_DATA\[8\]
*CELL NULL
*C2_R1_C1 2.645e-03 7.940e-03 2.645e-03 
*LOADS
*RC U615:B 4.200e-05
*END

*R_NET i_X_DATA\[7\] 5.290e-03
*DRIVER i_X_DATA\[7\]
*CELL NULL
*C2_R1_C1 2.645e-03 7.940e-03 2.645e-03 
*LOADS
*RC U614:B 4.200e-05
*END

*R_NET i_X_DATA\[6\] 5.290e-03
*DRIVER i_X_DATA\[6\]
*CELL NULL
*C2_R1_C1 2.645e-03 7.940e-03 2.645e-03 
*LOADS
*RC U613:B 4.200e-05
*END

*R_NET i_X_DATA\[5\] 5.290e-03
*DRIVER i_X_DATA\[5\]
*CELL NULL
*C2_R1_C1 2.645e-03 7.940e-03 2.645e-03 
*LOADS
*RC U612:B 4.200e-05
*END

*R_NET i_X_DATA\[4\] 5.290e-03
*DRIVER i_X_DATA\[4\]
*CELL NULL
*C2_R1_C1 2.645e-03 7.940e-03 2.645e-03 
*LOADS
*RC U611:B 4.200e-05
*END

*R_NET i_X_DATA\[3\] 5.290e-03
*DRIVER i_X_DATA\[3\]
*CELL NULL
*C2_R1_C1 2.645e-03 7.940e-03 2.645e-03 
*LOADS
*RC U610:B 4.200e-05
*END

*R_NET i_X_DATA\[2\] 5.290e-03
*DRIVER i_X_DATA\[2\]
*CELL NULL
*C2_R1_C1 2.645e-03 7.940e-03 2.645e-03 
*LOADS
*RC U609:B 4.200e-05
*END

*R_NET i_X_DATA\[1\] 5.290e-03
*DRIVER i_X_DATA\[1\]
*CELL NULL
*C2_R1_C1 2.645e-03 7.940e-03 2.645e-03 
*LOADS
*RC U608:B 4.200e-05
*END

*R_NET i_X_DATA\[0\] 5.290e-03
*DRIVER i_X_DATA\[0\]
*CELL NULL
*C2_R1_C1 2.645e-03 7.940e-03 2.645e-03 
*LOADS
*RC U607:B 4.200e-05
*END

*R_NET i_X_DATA_VALID 2.242e-02
*DRIVER i_X_DATA_VALID
*CELL NULL
*C2_R1_C1 1.121e-02 1.157e-02 1.121e-02 
*LOADS
*RC U1052:A 2.594e-04
*RC U1058:A 2.594e-04
*END

*R_NET o_X_DATA_READY 4.841e-02
*DRIVER o_X_DATA_READY_reg:Q
*CELL fd3qd1_hd
*C2_R1_C1 2.420e-02 1.824e-02 2.420e-02 
*LOADS
*RC U781:D0 8.830e-04
*RC U1052:B 8.830e-04
*RC U1058:B 8.830e-04
*RC o_X_DATA_READY 8.830e-04
*END

*R_NET o_Y_DATA\[31\] 3.989e-02
*DRIVER o_Y_DATA_reg_31_:Q
*CELL fd4qd1_hd
*C2_R1_C1 1.994e-02 1.824e-02 1.994e-02 
*LOADS
*RC U702:B 7.276e-04
*RC U765:D0 7.276e-04
*RC U784:A 7.276e-04
*RC o_Y_DATA\[31\] 7.276e-04
*END

*R_NET o_Y_DATA\[30\] 3.887e-02
*DRIVER o_Y_DATA_reg_30_:Q
*CELL fd4qd1_hd
*C2_R1_C1 1.943e-02 1.824e-02 1.943e-02 
*LOADS
*RC U701:B 7.090e-04
*RC U763:D0 7.090e-04
*RC U234:D 7.090e-04
*RC o_Y_DATA\[30\] 7.090e-04
*END

*R_NET o_Y_DATA\[29\] 3.887e-02
*DRIVER o_Y_DATA_reg_29_:Q
*CELL fd4qd1_hd
*C2_R1_C1 1.943e-02 1.824e-02 1.943e-02 
*LOADS
*RC U700:B 7.090e-04
*RC U761:D0 7.090e-04
*RC U235:D 7.090e-04
*RC o_Y_DATA\[29\] 7.090e-04
*END

*R_NET o_Y_DATA\[28\] 3.887e-02
*DRIVER o_Y_DATA_reg_28_:Q
*CELL fd4qd1_hd
*C2_R1_C1 1.943e-02 1.824e-02 1.943e-02 
*LOADS
*RC U699:B 7.090e-04
*RC U759:D0 7.090e-04
*RC U236:D 7.090e-04
*RC o_Y_DATA\[28\] 7.090e-04
*END

*R_NET o_Y_DATA\[27\] 3.887e-02
*DRIVER o_Y_DATA_reg_27_:Q
*CELL fd4qd1_hd
*C2_R1_C1 1.943e-02 1.824e-02 1.943e-02 
*LOADS
*RC U698:B 7.090e-04
*RC U757:D0 7.090e-04
*RC U237:D 7.090e-04
*RC o_Y_DATA\[27\] 7.090e-04
*END

*R_NET o_Y_DATA\[26\] 3.887e-02
*DRIVER o_Y_DATA_reg_26_:Q
*CELL fd4qd1_hd
*C2_R1_C1 1.943e-02 1.824e-02 1.943e-02 
*LOADS
*RC U697:B 7.090e-04
*RC U755:D0 7.090e-04
*RC U238:D 7.090e-04
*RC o_Y_DATA\[26\] 7.090e-04
*END

*R_NET o_Y_DATA\[25\] 3.887e-02
*DRIVER o_Y_DATA_reg_25_:Q
*CELL fd4qd1_hd
*C2_R1_C1 1.943e-02 1.824e-02 1.943e-02 
*LOADS
*RC U696:B 7.090e-04
*RC U753:D0 7.090e-04
*RC U239:D 7.090e-04
*RC o_Y_DATA\[25\] 7.090e-04
*END

*R_NET o_Y_DATA\[24\] 3.887e-02
*DRIVER o_Y_DATA_reg_24_:Q
*CELL fd4qd1_hd
*C2_R1_C1 1.943e-02 1.824e-02 1.943e-02 
*LOADS
*RC U695:B 7.090e-04
*RC U751:D0 7.090e-04
*RC U240:D 7.090e-04
*RC o_Y_DATA\[24\] 7.090e-04
*END

*R_NET o_Y_DATA\[23\] 3.887e-02
*DRIVER o_Y_DATA_reg_23_:Q
*CELL fd4qd1_hd
*C2_R1_C1 1.943e-02 1.824e-02 1.943e-02 
*LOADS
*RC U694:B 7.090e-04
*RC U749:D0 7.090e-04
*RC U241:D 7.090e-04
*RC o_Y_DATA\[23\] 7.090e-04
*END

*R_NET o_Y_DATA\[22\] 3.887e-02
*DRIVER o_Y_DATA_reg_22_:Q
*CELL fd4qd1_hd
*C2_R1_C1 1.943e-02 1.824e-02 1.943e-02 
*LOADS
*RC U693:B 7.090e-04
*RC U747:D0 7.090e-04
*RC U242:D 7.090e-04
*RC o_Y_DATA\[22\] 7.090e-04
*END

*R_NET o_Y_DATA\[21\] 3.887e-02
*DRIVER o_Y_DATA_reg_21_:Q
*CELL fd4qd1_hd
*C2_R1_C1 1.943e-02 1.824e-02 1.943e-02 
*LOADS
*RC U692:B 7.090e-04
*RC U745:D0 7.090e-04
*RC U243:D 7.090e-04
*RC o_Y_DATA\[21\] 7.090e-04
*END

*R_NET o_Y_DATA\[20\] 3.887e-02
*DRIVER o_Y_DATA_reg_20_:Q
*CELL fd4qd1_hd
*C2_R1_C1 1.943e-02 1.824e-02 1.943e-02 
*LOADS
*RC U691:B 7.090e-04
*RC U743:D0 7.090e-04
*RC U244:D 7.090e-04
*RC o_Y_DATA\[20\] 7.090e-04
*END

*R_NET o_Y_DATA\[19\] 3.887e-02
*DRIVER o_Y_DATA_reg_19_:Q
*CELL fd4qd1_hd
*C2_R1_C1 1.943e-02 1.824e-02 1.943e-02 
*LOADS
*RC U690:B 7.090e-04
*RC U741:D0 7.090e-04
*RC U245:D 7.090e-04
*RC o_Y_DATA\[19\] 7.090e-04
*END

*R_NET o_Y_DATA\[18\] 3.887e-02
*DRIVER o_Y_DATA_reg_18_:Q
*CELL fd4qd1_hd
*C2_R1_C1 1.943e-02 1.824e-02 1.943e-02 
*LOADS
*RC U689:B 7.090e-04
*RC U739:D0 7.090e-04
*RC U246:D 7.090e-04
*RC o_Y_DATA\[18\] 7.090e-04
*END

*R_NET o_Y_DATA\[17\] 3.887e-02
*DRIVER o_Y_DATA_reg_17_:Q
*CELL fd4qd1_hd
*C2_R1_C1 1.943e-02 1.824e-02 1.943e-02 
*LOADS
*RC U688:B 7.090e-04
*RC U737:D0 7.090e-04
*RC U247:D 7.090e-04
*RC o_Y_DATA\[17\] 7.090e-04
*END

*R_NET o_Y_DATA\[16\] 3.887e-02
*DRIVER o_Y_DATA_reg_16_:Q
*CELL fd4qd1_hd
*C2_R1_C1 1.943e-02 1.824e-02 1.943e-02 
*LOADS
*RC U687:B 7.090e-04
*RC U735:D0 7.090e-04
*RC U248:D 7.090e-04
*RC o_Y_DATA\[16\] 7.090e-04
*END

*R_NET o_Y_DATA\[15\] 3.887e-02
*DRIVER o_Y_DATA_reg_15_:Q
*CELL fd4qd1_hd
*C2_R1_C1 1.943e-02 1.824e-02 1.943e-02 
*LOADS
*RC U686:B 7.090e-04
*RC U733:D0 7.090e-04
*RC U249:D 7.090e-04
*RC o_Y_DATA\[15\] 7.090e-04
*END

*R_NET o_Y_DATA\[14\] 3.887e-02
*DRIVER o_Y_DATA_reg_14_:Q
*CELL fd4qd1_hd
*C2_R1_C1 1.943e-02 1.824e-02 1.943e-02 
*LOADS
*RC U685:B 7.090e-04
*RC U731:D0 7.090e-04
*RC U250:D 7.090e-04
*RC o_Y_DATA\[14\] 7.090e-04
*END

*R_NET o_Y_DATA\[13\] 3.887e-02
*DRIVER o_Y_DATA_reg_13_:Q
*CELL fd4qd1_hd
*C2_R1_C1 1.943e-02 1.824e-02 1.943e-02 
*LOADS
*RC U684:B 7.090e-04
*RC U729:D0 7.090e-04
*RC U251:D 7.090e-04
*RC o_Y_DATA\[13\] 7.090e-04
*END

*R_NET o_Y_DATA\[12\] 3.887e-02
*DRIVER o_Y_DATA_reg_12_:Q
*CELL fd4qd1_hd
*C2_R1_C1 1.943e-02 1.824e-02 1.943e-02 
*LOADS
*RC U683:B 7.090e-04
*RC U727:D0 7.090e-04
*RC U252:D 7.090e-04
*RC o_Y_DATA\[12\] 7.090e-04
*END

*R_NET o_Y_DATA\[11\] 3.887e-02
*DRIVER o_Y_DATA_reg_11_:Q
*CELL fd4qd1_hd
*C2_R1_C1 1.943e-02 1.824e-02 1.943e-02 
*LOADS
*RC U682:B 7.090e-04
*RC U725:D0 7.090e-04
*RC U253:D 7.090e-04
*RC o_Y_DATA\[11\] 7.090e-04
*END

*R_NET o_Y_DATA\[10\] 3.887e-02
*DRIVER o_Y_DATA_reg_10_:Q
*CELL fd4qd1_hd
*C2_R1_C1 1.943e-02 1.824e-02 1.943e-02 
*LOADS
*RC U681:B 7.090e-04
*RC U723:D0 7.090e-04
*RC U254:D 7.090e-04
*RC o_Y_DATA\[10\] 7.090e-04
*END

*R_NET o_Y_DATA\[9\] 3.887e-02
*DRIVER o_Y_DATA_reg_9_:Q
*CELL fd4qd1_hd
*C2_R1_C1 1.943e-02 1.824e-02 1.943e-02 
*LOADS
*RC U680:B 7.090e-04
*RC U721:D0 7.090e-04
*RC U255:D 7.090e-04
*RC o_Y_DATA\[9\] 7.090e-04
*END

*R_NET o_Y_DATA\[8\] 3.887e-02
*DRIVER o_Y_DATA_reg_8_:Q
*CELL fd4qd1_hd
*C2_R1_C1 1.943e-02 1.824e-02 1.943e-02 
*LOADS
*RC U679:B 7.090e-04
*RC U719:D0 7.090e-04
*RC U256:D 7.090e-04
*RC o_Y_DATA\[8\] 7.090e-04
*END

*R_NET o_Y_DATA\[7\] 3.887e-02
*DRIVER o_Y_DATA_reg_7_:Q
*CELL fd4qd1_hd
*C2_R1_C1 1.943e-02 1.824e-02 1.943e-02 
*LOADS
*RC U678:B 7.090e-04
*RC U717:D0 7.090e-04
*RC U257:D 7.090e-04
*RC o_Y_DATA\[7\] 7.090e-04
*END

*R_NET o_Y_DATA\[6\] 3.887e-02
*DRIVER o_Y_DATA_reg_6_:Q
*CELL fd4qd1_hd
*C2_R1_C1 1.943e-02 1.824e-02 1.943e-02 
*LOADS
*RC U677:B 7.090e-04
*RC U715:D0 7.090e-04
*RC U258:D 7.090e-04
*RC o_Y_DATA\[6\] 7.090e-04
*END

*R_NET o_Y_DATA\[5\] 3.887e-02
*DRIVER o_Y_DATA_reg_5_:Q
*CELL fd4qd1_hd
*C2_R1_C1 1.943e-02 1.824e-02 1.943e-02 
*LOADS
*RC U676:B 7.090e-04
*RC U713:D0 7.090e-04
*RC U259:D 7.090e-04
*RC o_Y_DATA\[5\] 7.090e-04
*END

*R_NET o_Y_DATA\[4\] 3.887e-02
*DRIVER o_Y_DATA_reg_4_:Q
*CELL fd4qd1_hd
*C2_R1_C1 1.943e-02 1.824e-02 1.943e-02 
*LOADS
*RC U675:B 7.090e-04
*RC U711:D0 7.090e-04
*RC U260:D 7.090e-04
*RC o_Y_DATA\[4\] 7.090e-04
*END

*R_NET o_Y_DATA\[3\] 3.887e-02
*DRIVER o_Y_DATA_reg_3_:Q
*CELL fd4qd1_hd
*C2_R1_C1 1.943e-02 1.824e-02 1.943e-02 
*LOADS
*RC U674:B 7.090e-04
*RC U709:D0 7.090e-04
*RC U261:D 7.090e-04
*RC o_Y_DATA\[3\] 7.090e-04
*END

*R_NET o_Y_DATA\[2\] 3.887e-02
*DRIVER o_Y_DATA_reg_2_:Q
*CELL fd4qd1_hd
*C2_R1_C1 1.943e-02 1.824e-02 1.943e-02 
*LOADS
*RC U673:B 7.090e-04
*RC U707:D0 7.090e-04
*RC U262:D 7.090e-04
*RC o_Y_DATA\[2\] 7.090e-04
*END

*R_NET o_Y_DATA\[1\] 3.887e-02
*DRIVER o_Y_DATA_reg_1_:Q
*CELL fd4qd1_hd
*C2_R1_C1 1.943e-02 1.824e-02 1.943e-02 
*LOADS
*RC U672:B 7.090e-04
*RC U705:D0 7.090e-04
*RC U263:D 7.090e-04
*RC o_Y_DATA\[1\] 7.090e-04
*END

*R_NET o_Y_DATA\[0\] 3.887e-02
*DRIVER o_Y_DATA_reg_0_:Q
*CELL fd4qd1_hd
*C2_R1_C1 1.943e-02 1.824e-02 1.943e-02 
*LOADS
*RC U671:B 7.090e-04
*RC U703:D0 7.090e-04
*RC U264:D 7.090e-04
*RC o_Y_DATA\[0\] 7.090e-04
*END

*R_NET o_Y_DATA_VALID 2.830e-02
*DRIVER o_Y_DATA_VALID_reg:Q
*CELL fd4qd1_hd
*C2_R1_C1 1.415e-02 1.366e-02 1.415e-02 
*LOADS
*RC U767:D0 3.866e-04
*RC U1051:A 3.866e-04
*RC o_Y_DATA_VALID 3.866e-04
*END

*R_NET i_Y_ACK 5.700e-03
*DRIVER i_Y_ACK
*CELL NULL
*C2_R1_C1 2.850e-03 7.940e-03 2.850e-03 
*LOADS
*RC U1051:B 4.526e-05
*END

*R_NET i_CLK 1.656e+00
*DRIVER i_CLK
*CELL NULL
*C2_R1_C1 8.279e-01 0.000e+00 8.279e-01 
*LOADS
*RC mult/o_Z_STB_reg:CK 0.000e+00
*RC mult/a_m_reg_20_:CK 0.000e+00
*RC mult/a_m_reg_15_:CK 0.000e+00
*RC mult/a_m_reg_21_:CK 0.000e+00
*RC mult/a_m_reg_14_:CK 0.000e+00
*RC mult/o_Z_reg_22_:CK 0.000e+00
*RC mult/z_reg_22_:CK 0.000e+00
*RC mult/o_Z_reg_31_:CK 0.000e+00
*RC mult/z_reg_31_:CK 0.000e+00
*RC mult/o_Z_reg_0_:CK 0.000e+00
*RC mult/z_reg_0_:CK 0.000e+00
*RC mult/o_Z_reg_1_:CK 0.000e+00
*RC mult/z_reg_1_:CK 0.000e+00
*RC mult/o_Z_reg_2_:CK 0.000e+00
*RC mult/z_reg_2_:CK 0.000e+00
*RC mult/o_Z_reg_3_:CK 0.000e+00
*RC mult/z_reg_3_:CK 0.000e+00
*RC mult/o_Z_reg_4_:CK 0.000e+00
*RC mult/z_reg_4_:CK 0.000e+00
*RC mult/o_Z_reg_5_:CK 0.000e+00
*RC mult/z_reg_5_:CK 0.000e+00
*RC mult/o_Z_reg_6_:CK 0.000e+00
*RC mult/z_reg_6_:CK 0.000e+00
*RC mult/o_Z_reg_7_:CK 0.000e+00
*RC mult/z_reg_7_:CK 0.000e+00
*RC mult/o_Z_reg_8_:CK 0.000e+00
*RC mult/z_reg_8_:CK 0.000e+00
*RC mult/o_Z_reg_9_:CK 0.000e+00
*RC mult/z_reg_9_:CK 0.000e+00
*RC mult/o_Z_reg_10_:CK 0.000e+00
*RC mult/z_reg_10_:CK 0.000e+00
*RC mult/o_Z_reg_11_:CK 0.000e+00
*RC mult/z_reg_11_:CK 0.000e+00
*RC mult/o_Z_reg_12_:CK 0.000e+00
*RC mult/z_reg_12_:CK 0.000e+00
*RC mult/o_Z_reg_13_:CK 0.000e+00
*RC mult/z_reg_13_:CK 0.000e+00
*RC mult/o_Z_reg_14_:CK 0.000e+00
*RC mult/z_reg_14_:CK 0.000e+00
*RC mult/o_Z_reg_15_:CK 0.000e+00
*RC mult/z_reg_15_:CK 0.000e+00
*RC mult/o_Z_reg_16_:CK 0.000e+00
*RC mult/z_reg_16_:CK 0.000e+00
*RC mult/o_Z_reg_17_:CK 0.000e+00
*RC mult/z_reg_17_:CK 0.000e+00
*RC mult/o_Z_reg_18_:CK 0.000e+00
*RC mult/z_reg_18_:CK 0.000e+00
*RC mult/o_Z_reg_19_:CK 0.000e+00
*RC mult/z_reg_19_:CK 0.000e+00
*RC mult/o_Z_reg_20_:CK 0.000e+00
*RC mult/z_reg_20_:CK 0.000e+00
*RC mult/o_Z_reg_21_:CK 0.000e+00
*RC mult/z_reg_21_:CK 0.000e+00
*RC mult/o_Z_reg_23_:CK 0.000e+00
*RC mult/z_reg_23_:CK 0.000e+00
*RC mult/o_Z_reg_24_:CK 0.000e+00
*RC mult/z_reg_24_:CK 0.000e+00
*RC mult/o_Z_reg_25_:CK 0.000e+00
*RC mult/z_reg_25_:CK 0.000e+00
*RC mult/o_Z_reg_26_:CK 0.000e+00
*RC mult/z_reg_26_:CK 0.000e+00
*RC mult/o_Z_reg_27_:CK 0.000e+00
*RC mult/z_reg_27_:CK 0.000e+00
*RC mult/o_Z_reg_28_:CK 0.000e+00
*RC mult/z_reg_28_:CK 0.000e+00
*RC mult/o_Z_reg_29_:CK 0.000e+00
*RC mult/z_reg_29_:CK 0.000e+00
*RC mult/o_Z_reg_30_:CK 0.000e+00
*RC mult/z_reg_30_:CK 0.000e+00
*RC mult/sticky_reg:CK 0.000e+00
*RC mult/z_e_reg_8_:CK 0.000e+00
*RC mult/z_e_reg_7_:CK 0.000e+00
*RC mult/z_e_reg_6_:CK 0.000e+00
*RC mult/z_e_reg_5_:CK 0.000e+00
*RC mult/z_e_reg_4_:CK 0.000e+00
*RC mult/z_e_reg_3_:CK 0.000e+00
*RC mult/z_e_reg_2_:CK 0.000e+00
*RC mult/z_e_reg_1_:CK 0.000e+00
*RC mult/z_e_reg_9_:CK 0.000e+00
*RC mult/round_bit_reg:CK 0.000e+00
*RC mult/guard_reg:CK 0.000e+00
*RC mult/z_m_reg_6_:CK 0.000e+00
*RC mult/z_m_reg_7_:CK 0.000e+00
*RC mult/z_m_reg_8_:CK 0.000e+00
*RC mult/z_m_reg_9_:CK 0.000e+00
*RC mult/z_m_reg_10_:CK 0.000e+00
*RC mult/z_m_reg_11_:CK 0.000e+00
*RC mult/z_m_reg_12_:CK 0.000e+00
*RC mult/z_m_reg_13_:CK 0.000e+00
*RC mult/z_m_reg_14_:CK 0.000e+00
*RC mult/z_m_reg_15_:CK 0.000e+00
*RC mult/z_m_reg_16_:CK 0.000e+00
*RC mult/z_m_reg_17_:CK 0.000e+00
*RC mult/z_m_reg_18_:CK 0.000e+00
*RC mult/z_m_reg_19_:CK 0.000e+00
*RC mult/z_m_reg_20_:CK 0.000e+00
*RC mult/z_m_reg_21_:CK 0.000e+00
*RC mult/z_m_reg_22_:CK 0.000e+00
*RC mult/z_m_reg_23_:CK 0.000e+00
*RC mult/product_reg_49_:CK 0.000e+00
*RC mult/product_reg_48_:CK 0.000e+00
*RC mult/product_reg_47_:CK 0.000e+00
*RC mult/product_reg_46_:CK 0.000e+00
*RC mult/product_reg_45_:CK 0.000e+00
*RC mult/product_reg_44_:CK 0.000e+00
*RC mult/product_reg_43_:CK 0.000e+00
*RC mult/product_reg_42_:CK 0.000e+00
*RC mult/product_reg_41_:CK 0.000e+00
*RC mult/product_reg_40_:CK 0.000e+00
*RC mult/product_reg_39_:CK 0.000e+00
*RC mult/product_reg_38_:CK 0.000e+00
*RC mult/product_reg_37_:CK 0.000e+00
*RC mult/product_reg_36_:CK 0.000e+00
*RC mult/product_reg_35_:CK 0.000e+00
*RC mult/product_reg_34_:CK 0.000e+00
*RC mult/product_reg_33_:CK 0.000e+00
*RC mult/product_reg_32_:CK 0.000e+00
*RC mult/product_reg_31_:CK 0.000e+00
*RC mult/product_reg_30_:CK 0.000e+00
*RC mult/product_reg_29_:CK 0.000e+00
*RC mult/product_reg_28_:CK 0.000e+00
*RC mult/product_reg_27_:CK 0.000e+00
*RC mult/product_reg_26_:CK 0.000e+00
*RC mult/product_reg_25_:CK 0.000e+00
*RC mult/product_reg_24_:CK 0.000e+00
*RC mult/product_reg_23_:CK 0.000e+00
*RC mult/product_reg_22_:CK 0.000e+00
*RC mult/product_reg_21_:CK 0.000e+00
*RC mult/product_reg_20_:CK 0.000e+00
*RC mult/product_reg_19_:CK 0.000e+00
*RC mult/product_reg_18_:CK 0.000e+00
*RC mult/product_reg_17_:CK 0.000e+00
*RC mult/product_reg_16_:CK 0.000e+00
*RC mult/product_reg_15_:CK 0.000e+00
*RC mult/product_reg_14_:CK 0.000e+00
*RC mult/product_reg_13_:CK 0.000e+00
*RC mult/product_reg_12_:CK 0.000e+00
*RC mult/product_reg_11_:CK 0.000e+00
*RC mult/product_reg_10_:CK 0.000e+00
*RC mult/product_reg_9_:CK 0.000e+00
*RC mult/product_reg_8_:CK 0.000e+00
*RC mult/product_reg_7_:CK 0.000e+00
*RC mult/product_reg_6_:CK 0.000e+00
*RC mult/product_reg_5_:CK 0.000e+00
*RC mult/product_reg_4_:CK 0.000e+00
*RC mult/product_reg_3_:CK 0.000e+00
*RC mult/product_reg_2_:CK 0.000e+00
*RC mult/a_e_reg_2_:CK 0.000e+00
*RC mult/a_e_reg_1_:CK 0.000e+00
*RC mult/a_e_reg_0_:CK 0.000e+00
*RC mult/a_e_reg_9_:CK 0.000e+00
*RC mult/b_e_reg_3_:CK 0.000e+00
*RC mult/b_e_reg_2_:CK 0.000e+00
*RC mult/b_e_reg_1_:CK 0.000e+00
*RC mult/b_e_reg_0_:CK 0.000e+00
*RC mult/b_m_reg_16_:CK 0.000e+00
*RC mult/b_m_reg_15_:CK 0.000e+00
*RC mult/b_m_reg_13_:CK 0.000e+00
*RC mult/b_m_reg_12_:CK 0.000e+00
*RC mult/b_m_reg_10_:CK 0.000e+00
*RC mult/b_m_reg_9_:CK 0.000e+00
*RC mult/b_m_reg_7_:CK 0.000e+00
*RC mult/b_m_reg_6_:CK 0.000e+00
*RC mult/b_m_reg_4_:CK 0.000e+00
*RC mult/b_m_reg_3_:CK 0.000e+00
*RC mult/b_m_reg_1_:CK 0.000e+00
*RC mult/b_m_reg_0_:CK 0.000e+00
*RC mult/a_reg_0_:CK 0.000e+00
*RC mult/a_reg_1_:CK 0.000e+00
*RC mult/a_reg_2_:CK 0.000e+00
*RC mult/a_reg_3_:CK 0.000e+00
*RC mult/a_reg_4_:CK 0.000e+00
*RC mult/a_reg_5_:CK 0.000e+00
*RC mult/a_reg_6_:CK 0.000e+00
*RC mult/a_reg_7_:CK 0.000e+00
*RC mult/a_reg_8_:CK 0.000e+00
*RC mult/a_reg_9_:CK 0.000e+00
*RC mult/a_reg_10_:CK 0.000e+00
*RC mult/a_reg_11_:CK 0.000e+00
*RC mult/a_reg_12_:CK 0.000e+00
*RC mult/a_reg_13_:CK 0.000e+00
*RC mult/a_reg_14_:CK 0.000e+00
*RC mult/a_reg_15_:CK 0.000e+00
*RC mult/a_reg_16_:CK 0.000e+00
*RC mult/a_reg_17_:CK 0.000e+00
*RC mult/a_reg_18_:CK 0.000e+00
*RC mult/a_reg_19_:CK 0.000e+00
*RC mult/a_reg_20_:CK 0.000e+00
*RC mult/a_reg_21_:CK 0.000e+00
*RC mult/a_reg_22_:CK 0.000e+00
*RC mult/a_reg_23_:CK 0.000e+00
*RC mult/a_reg_24_:CK 0.000e+00
*RC mult/a_reg_25_:CK 0.000e+00
*RC mult/a_reg_26_:CK 0.000e+00
*RC mult/a_reg_27_:CK 0.000e+00
*RC mult/a_reg_28_:CK 0.000e+00
*RC mult/a_reg_29_:CK 0.000e+00
*RC mult/a_reg_30_:CK 0.000e+00
*RC mult/z_s_reg:CK 0.000e+00
*RC mult/a_s_reg:CK 0.000e+00
*RC mult/a_reg_31_:CK 0.000e+00
*RC mult/b_reg_0_:CK 0.000e+00
*RC mult/b_reg_1_:CK 0.000e+00
*RC mult/b_reg_2_:CK 0.000e+00
*RC mult/b_reg_3_:CK 0.000e+00
*RC mult/b_reg_4_:CK 0.000e+00
*RC mult/b_reg_5_:CK 0.000e+00
*RC mult/b_reg_6_:CK 0.000e+00
*RC mult/b_reg_7_:CK 0.000e+00
*RC mult/b_reg_8_:CK 0.000e+00
*RC mult/b_reg_9_:CK 0.000e+00
*RC mult/b_reg_10_:CK 0.000e+00
*RC mult/b_reg_11_:CK 0.000e+00
*RC mult/b_reg_12_:CK 0.000e+00
*RC mult/b_reg_13_:CK 0.000e+00
*RC mult/b_reg_14_:CK 0.000e+00
*RC mult/b_reg_15_:CK 0.000e+00
*RC mult/b_reg_16_:CK 0.000e+00
*RC mult/b_reg_17_:CK 0.000e+00
*RC mult/b_reg_18_:CK 0.000e+00
*RC mult/b_reg_19_:CK 0.000e+00
*RC mult/b_reg_20_:CK 0.000e+00
*RC mult/b_reg_21_:CK 0.000e+00
*RC mult/b_reg_22_:CK 0.000e+00
*RC mult/b_reg_23_:CK 0.000e+00
*RC mult/b_reg_24_:CK 0.000e+00
*RC mult/b_reg_25_:CK 0.000e+00
*RC mult/b_reg_26_:CK 0.000e+00
*RC mult/b_reg_27_:CK 0.000e+00
*RC mult/b_reg_28_:CK 0.000e+00
*RC mult/b_reg_29_:CK 0.000e+00
*RC mult/b_reg_30_:CK 0.000e+00
*RC mult/b_reg_31_:CK 0.000e+00
*RC mult/b_e_reg_7_:CK 0.000e+00
*RC mult/b_e_reg_6_:CK 0.000e+00
*RC mult/b_e_reg_5_:CK 0.000e+00
*RC mult/b_e_reg_4_:CK 0.000e+00
*RC mult/b_m_reg_17_:CK 0.000e+00
*RC mult/b_m_reg_5_:CK 0.000e+00
*RC mult/b_m_reg_14_:CK 0.000e+00
*RC mult/b_m_reg_8_:CK 0.000e+00
*RC mult/b_m_reg_20_:CK 0.000e+00
*RC mult/b_m_reg_11_:CK 0.000e+00
*RC mult/b_m_reg_2_:CK 0.000e+00
*RC mult/a_m_reg_23_:CK 0.000e+00
*RC mult/a_m_reg_22_:CK 0.000e+00
*RC mult/a_e_reg_8_:CK 0.000e+00
*RC mult/a_e_reg_7_:CK 0.000e+00
*RC mult/a_e_reg_6_:CK 0.000e+00
*RC mult/a_e_reg_5_:CK 0.000e+00
*RC mult/a_e_reg_4_:CK 0.000e+00
*RC mult/a_e_reg_3_:CK 0.000e+00
*RC mult/z_m_reg_0_:CK 0.000e+00
*RC mult/z_m_reg_1_:CK 0.000e+00
*RC mult/z_m_reg_2_:CK 0.000e+00
*RC mult/z_m_reg_3_:CK 0.000e+00
*RC mult/z_m_reg_4_:CK 0.000e+00
*RC mult/z_m_reg_5_:CK 0.000e+00
*RC mult/b_m_reg_22_:CK 0.000e+00
*RC mult/b_m_reg_21_:CK 0.000e+00
*RC mult/b_m_reg_19_:CK 0.000e+00
*RC mult/b_m_reg_18_:CK 0.000e+00
*RC mult/b_m_reg_23_:CK 0.000e+00
*RC mult/b_s_reg:CK 0.000e+00
*RC mult/b_e_reg_8_:CK 0.000e+00
*RC mult/b_e_reg_9_:CK 0.000e+00
*RC mult/state_reg_0_:CK 0.000e+00
*RC mult/state_reg_1_:CK 0.000e+00
*RC mult/state_reg_2_:CK 0.000e+00
*RC mult/state_reg_3_:CK 0.000e+00
*RC mult/o_AB_ACK_reg:CK 0.000e+00
*RC mult/z_e_reg_0_:CK 0.000e+00
*RC mult/a_m_reg_19_:CK 0.000e+00
*RC mult/a_m_reg_18_:CK 0.000e+00
*RC mult/a_m_reg_17_:CK 0.000e+00
*RC mult/a_m_reg_16_:CK 0.000e+00
*RC mult/a_m_reg_13_:CK 0.000e+00
*RC mult/a_m_reg_12_:CK 0.000e+00
*RC mult/a_m_reg_11_:CK 0.000e+00
*RC mult/a_m_reg_10_:CK 0.000e+00
*RC mult/a_m_reg_9_:CK 0.000e+00
*RC mult/a_m_reg_8_:CK 0.000e+00
*RC mult/a_m_reg_7_:CK 0.000e+00
*RC mult/a_m_reg_6_:CK 0.000e+00
*RC mult/a_m_reg_5_:CK 0.000e+00
*RC mult/a_m_reg_4_:CK 0.000e+00
*RC mult/a_m_reg_3_:CK 0.000e+00
*RC mult/a_m_reg_2_:CK 0.000e+00
*RC mult/a_m_reg_1_:CK 0.000e+00
*RC mult/a_m_reg_0_:CK 0.000e+00
*RC add/sum_reg_27_:CK 0.000e+00
*RC add/sum_reg_3_:CK 0.000e+00
*RC add/b_m_reg_3_:CK 0.000e+00
*RC add/a_m_reg_20_:CK 0.000e+00
*RC add/a_m_reg_1_:CK 0.000e+00
*RC add/a_m_reg_12_:CK 0.000e+00
*RC add/a_m_reg_9_:CK 0.000e+00
*RC add/a_m_reg_8_:CK 0.000e+00
*RC add/b_m_reg_14_:CK 0.000e+00
*RC add/b_m_reg_13_:CK 0.000e+00
*RC add/b_m_reg_12_:CK 0.000e+00
*RC add/b_m_reg_11_:CK 0.000e+00
*RC add/b_m_reg_10_:CK 0.000e+00
*RC add/b_m_reg_9_:CK 0.000e+00
*RC add/b_m_reg_8_:CK 0.000e+00
*RC add/b_m_reg_24_:CK 0.000e+00
*RC add/b_m_reg_22_:CK 0.000e+00
*RC add/b_m_reg_20_:CK 0.000e+00
*RC add/b_m_reg_18_:CK 0.000e+00
*RC add/b_m_reg_16_:CK 0.000e+00
*RC add/b_m_reg_25_:CK 0.000e+00
*RC add/a_m_reg_7_:CK 0.000e+00
*RC add/b_m_reg_26_:CK 0.000e+00
*RC add/b_m_reg_6_:CK 0.000e+00
*RC add/b_m_reg_2_:CK 0.000e+00
*RC add/a_m_reg_25_:CK 0.000e+00
*RC add/a_m_reg_6_:CK 0.000e+00
*RC add/a_m_reg_21_:CK 0.000e+00
*RC add/b_s_reg:CK 0.000e+00
*RC add/b_m_reg_1_:CK 0.000e+00
*RC add/a_s_reg:CK 0.000e+00
*RC add/z_reg_22_:CK 0.000e+00
*RC add/z_reg_21_:CK 0.000e+00
*RC add/z_reg_20_:CK 0.000e+00
*RC add/z_reg_19_:CK 0.000e+00
*RC add/z_reg_18_:CK 0.000e+00
*RC add/z_reg_17_:CK 0.000e+00
*RC add/z_reg_16_:CK 0.000e+00
*RC add/z_reg_15_:CK 0.000e+00
*RC add/z_reg_14_:CK 0.000e+00
*RC add/z_reg_13_:CK 0.000e+00
*RC add/z_reg_12_:CK 0.000e+00
*RC add/z_reg_11_:CK 0.000e+00
*RC add/z_reg_10_:CK 0.000e+00
*RC add/z_reg_9_:CK 0.000e+00
*RC add/z_reg_8_:CK 0.000e+00
*RC add/z_reg_7_:CK 0.000e+00
*RC add/z_reg_6_:CK 0.000e+00
*RC add/z_reg_5_:CK 0.000e+00
*RC add/z_reg_4_:CK 0.000e+00
*RC add/z_reg_3_:CK 0.000e+00
*RC add/z_reg_2_:CK 0.000e+00
*RC add/z_reg_1_:CK 0.000e+00
*RC add/z_reg_0_:CK 0.000e+00
*RC add/z_reg_31_:CK 0.000e+00
*RC add/z_reg_23_:CK 0.000e+00
*RC add/z_reg_24_:CK 0.000e+00
*RC add/z_reg_25_:CK 0.000e+00
*RC add/z_reg_26_:CK 0.000e+00
*RC add/z_reg_27_:CK 0.000e+00
*RC add/z_reg_28_:CK 0.000e+00
*RC add/z_reg_29_:CK 0.000e+00
*RC add/z_reg_30_:CK 0.000e+00
*RC add/z_e_reg_6_:CK 0.000e+00
*RC add/z_e_reg_7_:CK 0.000e+00
*RC add/round_bit_reg:CK 0.000e+00
*RC add/guard_reg:CK 0.000e+00
*RC add/z_m_reg_6_:CK 0.000e+00
*RC add/z_m_reg_7_:CK 0.000e+00
*RC add/z_m_reg_8_:CK 0.000e+00
*RC add/z_m_reg_9_:CK 0.000e+00
*RC add/z_m_reg_10_:CK 0.000e+00
*RC add/z_m_reg_11_:CK 0.000e+00
*RC add/z_m_reg_12_:CK 0.000e+00
*RC add/z_m_reg_13_:CK 0.000e+00
*RC add/z_m_reg_14_:CK 0.000e+00
*RC add/z_m_reg_15_:CK 0.000e+00
*RC add/z_m_reg_16_:CK 0.000e+00
*RC add/z_m_reg_17_:CK 0.000e+00
*RC add/z_m_reg_18_:CK 0.000e+00
*RC add/z_m_reg_19_:CK 0.000e+00
*RC add/z_m_reg_20_:CK 0.000e+00
*RC add/z_m_reg_21_:CK 0.000e+00
*RC add/z_m_reg_22_:CK 0.000e+00
*RC add/z_m_reg_23_:CK 0.000e+00
*RC add/z_e_reg_8_:CK 0.000e+00
*RC add/z_e_reg_9_:CK 0.000e+00
*RC add/sum_reg_23_:CK 0.000e+00
*RC add/sum_reg_22_:CK 0.000e+00
*RC add/sum_reg_21_:CK 0.000e+00
*RC add/sum_reg_20_:CK 0.000e+00
*RC add/sum_reg_19_:CK 0.000e+00
*RC add/sum_reg_18_:CK 0.000e+00
*RC add/sum_reg_17_:CK 0.000e+00
*RC add/sum_reg_16_:CK 0.000e+00
*RC add/sum_reg_15_:CK 0.000e+00
*RC add/sum_reg_14_:CK 0.000e+00
*RC add/sum_reg_13_:CK 0.000e+00
*RC add/sum_reg_12_:CK 0.000e+00
*RC add/sum_reg_11_:CK 0.000e+00
*RC add/sum_reg_10_:CK 0.000e+00
*RC add/sum_reg_9_:CK 0.000e+00
*RC add/sum_reg_8_:CK 0.000e+00
*RC add/sum_reg_7_:CK 0.000e+00
*RC add/sum_reg_6_:CK 0.000e+00
*RC add/sum_reg_5_:CK 0.000e+00
*RC add/sum_reg_4_:CK 0.000e+00
*RC add/sum_reg_2_:CK 0.000e+00
*RC add/sum_reg_1_:CK 0.000e+00
*RC add/sum_reg_0_:CK 0.000e+00
*RC add/z_s_reg:CK 0.000e+00
*RC add/a_m_reg_10_:CK 0.000e+00
*RC add/a_m_reg_11_:CK 0.000e+00
*RC add/a_m_reg_13_:CK 0.000e+00
*RC add/a_m_reg_14_:CK 0.000e+00
*RC add/a_m_reg_15_:CK 0.000e+00
*RC add/a_m_reg_16_:CK 0.000e+00
*RC add/a_m_reg_17_:CK 0.000e+00
*RC add/a_m_reg_18_:CK 0.000e+00