*SPEF "IEEE 1481-1999"
*DESIGN "iir_hpf"
*DATE "Wed May  6 15:31:58 2020"
*VENDOR "SYNOPSYS INC"
*PROGRAM "Synopsys Design Compiler cmos"
*VERSION "F-2011.09-SP5-3"
*DESIGN_FLOW "SYNTHESIS"
*DIVIDER /
*DELIMITER :
*BUS_DELIMITER []
*T_UNIT 1.0 NS
*C_UNIT 1.0 PF
*R_UNIT 1.0 KOHM
*L_UNIT 1.0 HENRY

*PORTS

i_X_DATA\[31\] I *L 0.000e+00 *S 0.000e+00 0.000e+00 
i_X_DATA\[30\] I *L 0.000e+00 *S 0.000e+00 0.000e+00 
i_X_DATA\[29\] I *L 0.000e+00 *S 0.000e+00 0.000e+00 
i_X_DATA\[28\] I *L 0.000e+00 *S 0.000e+00 0.000e+00 
i_X_DATA\[27\] I *L 0.000e+00 *S 0.000e+00 0.000e+00 
i_X_DATA\[26\] I *L 0.000e+00 *S 0.000e+00 0.000e+00 
i_X_DATA\[25\] I *L 0.000e+00 *S 0.000e+00 0.000e+00 
i_X_DATA\[24\] I *L 0.000e+00 *S 0.000e+00 0.000e+00 
i_X_DATA\[23\] I *L 0.000e+00 *S 0.000e+00 0.000e+00 
i_X_DATA\[22\] I *L 0.000e+00 *S 0.000e+00 0.000e+00 
i_X_DATA\[21\] I *L 0.000e+00 *S 0.000e+00 0.000e+00 
i_X_DATA\[20\] I *L 0.000e+00 *S 0.000e+00 0.000e+00 
i_X_DATA\[19\] I *L 0.000e+00 *S 0.000e+00 0.000e+00 
i_X_DATA\[18\] I *L 0.000e+00 *S 0.000e+00 0.000e+00 
i_X_DATA\[17\] I *L 0.000e+00 *S 0.000e+00 0.000e+00 
i_X_DATA\[16\] I *L 0.000e+00 *S 0.000e+00 0.000e+00 
i_X_DATA\[15\] I *L 0.000e+00 *S 0.000e+00 0.000e+00 
i_X_DATA\[14\] I *L 0.000e+00 *S 0.000e+00 0.000e+00 
i_X_DATA\[13\] I *L 0.000e+00 *S 0.000e+00 0.000e+00 
i_X_DATA\[12\] I *L 0.000e+00 *S 0.000e+00 0.000e+00 
i_X_DATA\[11\] I *L 0.000e+00 *S 0.000e+00 0.000e+00 
i_X_DATA\[10\] I *L 0.000e+00 *S 0.000e+00 0.000e+00 
i_X_DATA\[9\] I *L 0.000e+00 *S 0.000e+00 0.000e+00 
i_X_DATA\[8\] I *L 0.000e+00 *S 0.000e+00 0.000e+00 
i_X_DATA\[7\] I *L 0.000e+00 *S 0.000e+00 0.000e+00 
i_X_DATA\[6\] I *L 0.000e+00 *S 0.000e+00 0.000e+00 
i_X_DATA\[5\] I *L 0.000e+00 *S 0.000e+00 0.000e+00 
i_X_DATA\[4\] I *L 0.000e+00 *S 0.000e+00 0.000e+00 
i_X_DATA\[3\] I *L 0.000e+00 *S 0.000e+00 0.000e+00 
i_X_DATA\[2\] I *L 0.000e+00 *S 0.000e+00 0.000e+00 
i_X_DATA\[1\] I *L 0.000e+00 *S 0.000e+00 0.000e+00 
i_X_DATA\[0\] I *L 0.000e+00 *S 0.000e+00 0.000e+00 
i_X_DATA_VALID I *L 0.000e+00 *S 0.000e+00 0.000e+00 
o_X_DATA_READY O *L 1.035e-02 *S 1.969e-01 1.489e-01 
o_Y_DATA\[31\] O *L 1.035e-02 *S 3.456e-01 3.555e-01 
o_Y_DATA\[30\] O *L 1.035e-02 *S 2.437e-01 2.723e-01 
o_Y_DATA\[29\] O *L 1.035e-02 *S 2.437e-01 2.723e-01 
o_Y_DATA\[28\] O *L 1.035e-02 *S 2.437e-01 2.723e-01 
o_Y_DATA\[27\] O *L 1.035e-02 *S 2.437e-01 2.723e-01 
o_Y_DATA\[26\] O *L 1.035e-02 *S 2.437e-01 2.723e-01 
o_Y_DATA\[25\] O *L 1.035e-02 *S 2.437e-01 2.723e-01 
o_Y_DATA\[24\] O *L 1.035e-02 *S 2.437e-01 2.723e-01 
o_Y_DATA\[23\] O *L 1.035e-02 *S 2.437e-01 2.723e-01 
o_Y_DATA\[22\] O *L 1.035e-02 *S 2.437e-01 2.723e-01 
o_Y_DATA\[21\] O *L 1.035e-02 *S 2.437e-01 2.723e-01 
o_Y_DATA\[20\] O *L 1.035e-02 *S 2.437e-01 2.723e-01 
o_Y_DATA\[19\] O *L 1.035e-02 *S 2.437e-01 2.723e-01 
o_Y_DATA\[18\] O *L 1.035e-02 *S 2.437e-01 2.723e-01 
o_Y_DATA\[17\] O *L 1.035e-02 *S 2.437e-01 2.723e-01 
o_Y_DATA\[16\] O *L 1.035e-02 *S 2.437e-01 2.723e-01 
o_Y_DATA\[15\] O *L 1.035e-02 *S 2.437e-01 2.723e-01 
o_Y_DATA\[14\] O *L 1.035e-02 *S 2.437e-01 2.723e-01 
o_Y_DATA\[13\] O *L 1.035e-02 *S 2.437e-01 2.723e-01 
o_Y_DATA\[12\] O *L 1.035e-02 *S 2.437e-01 2.723e-01 
o_Y_DATA\[11\] O *L 1.035e-02 *S 2.437e-01 2.723e-01 
o_Y_DATA\[10\] O *L 1.035e-02 *S 2.437e-01 2.723e-01 
o_Y_DATA\[9\] O *L 1.035e-02 *S 2.437e-01 2.723e-01 
o_Y_DATA\[8\] O *L 1.035e-02 *S 2.437e-01 2.723e-01 
o_Y_DATA\[7\] O *L 1.035e-02 *S 2.437e-01 2.723e-01 
o_Y_DATA\[6\] O *L 1.035e-02 *S 2.437e-01 2.723e-01 
o_Y_DATA\[5\] O *L 1.035e-02 *S 2.437e-01 2.723e-01 
o_Y_DATA\[4\] O *L 1.035e-02 *S 2.437e-01 2.723e-01 
o_Y_DATA\[3\] O *L 1.035e-02 *S 2.437e-01 2.723e-01 
o_Y_DATA\[2\] O *L 1.035e-02 *S 2.437e-01 2.723e-01 
o_Y_DATA\[1\] O *L 1.035e-02 *S 2.437e-01 2.723e-01 
o_Y_DATA\[0\] O *L 1.035e-02 *S 2.437e-01 2.723e-01 
o_Y_DATA_VALID O *L 1.035e-02 *S 2.463e-01 2.744e-01 
i_Y_ACK I *L 0.000e+00 *S 0.000e+00 0.000e+00 
i_CLK I *L 0.000e+00 *S 0.000e+00 0.000e+00 
i_RSTN I *L 0.000e+00 *S 0.000e+00 0.000e+00 

*R_NET i_X_DATA\[31\] 5.700e-03
*DRIVER i_X_DATA\[31\]
*CELL NULL
*C2_R1_C1 2.850e-03 7.940e-03 2.850e-03 
*LOADS
*RC U566:B 4.526e-05
*END

*R_NET i_X_DATA\[30\] 5.700e-03
*DRIVER i_X_DATA\[30\]
*CELL NULL
*C2_R1_C1 2.850e-03 7.940e-03 2.850e-03 
*LOADS
*RC U567:B 4.526e-05
*END

*R_NET i_X_DATA\[29\] 5.700e-03
*DRIVER i_X_DATA\[29\]
*CELL NULL
*C2_R1_C1 2.850e-03 7.940e-03 2.850e-03 
*LOADS
*RC U568:B 4.526e-05
*END

*R_NET i_X_DATA\[28\] 5.700e-03
*DRIVER i_X_DATA\[28\]
*CELL NULL
*C2_R1_C1 2.850e-03 7.940e-03 2.850e-03 
*LOADS
*RC U569:B 4.526e-05
*END

*R_NET i_X_DATA\[27\] 5.700e-03
*DRIVER i_X_DATA\[27\]
*CELL NULL
*C2_R1_C1 2.850e-03 7.940e-03 2.850e-03 
*LOADS
*RC U570:B 4.526e-05
*END

*R_NET i_X_DATA\[26\] 5.700e-03
*DRIVER i_X_DATA\[26\]
*CELL NULL
*C2_R1_C1 2.850e-03 7.940e-03 2.850e-03 
*LOADS
*RC U571:B 4.526e-05
*END

*R_NET i_X_DATA\[25\] 5.700e-03
*DRIVER i_X_DATA\[25\]
*CELL NULL
*C2_R1_C1 2.850e-03 7.940e-03 2.850e-03 
*LOADS
*RC U572:B 4.526e-05
*END

*R_NET i_X_DATA\[24\] 5.700e-03
*DRIVER i_X_DATA\[24\]
*CELL NULL
*C2_R1_C1 2.850e-03 7.940e-03 2.850e-03 
*LOADS
*RC U573:B 4.526e-05
*END

*R_NET i_X_DATA\[23\] 5.700e-03
*DRIVER i_X_DATA\[23\]
*CELL NULL
*C2_R1_C1 2.850e-03 7.940e-03 2.850e-03 
*LOADS
*RC U574:B 4.526e-05
*END

*R_NET i_X_DATA\[22\] 5.700e-03
*DRIVER i_X_DATA\[22\]
*CELL NULL
*C2_R1_C1 2.850e-03 7.940e-03 2.850e-03 
*LOADS
*RC U575:B 4.526e-05
*END

*R_NET i_X_DATA\[21\] 5.700e-03
*DRIVER i_X_DATA\[21\]
*CELL NULL
*C2_R1_C1 2.850e-03 7.940e-03 2.850e-03 
*LOADS
*RC U576:B 4.526e-05
*END

*R_NET i_X_DATA\[20\] 5.700e-03
*DRIVER i_X_DATA\[20\]
*CELL NULL
*C2_R1_C1 2.850e-03 7.940e-03 2.850e-03 
*LOADS
*RC U577:B 4.526e-05
*END

*R_NET i_X_DATA\[19\] 5.700e-03
*DRIVER i_X_DATA\[19\]
*CELL NULL
*C2_R1_C1 2.850e-03 7.940e-03 2.850e-03 
*LOADS
*RC U578:B 4.526e-05
*END

*R_NET i_X_DATA\[18\] 5.700e-03
*DRIVER i_X_DATA\[18\]
*CELL NULL
*C2_R1_C1 2.850e-03 7.940e-03 2.850e-03 
*LOADS
*RC U579:B 4.526e-05
*END

*R_NET i_X_DATA\[17\] 5.700e-03
*DRIVER i_X_DATA\[17\]
*CELL NULL
*C2_R1_C1 2.850e-03 7.940e-03 2.850e-03 
*LOADS
*RC U580:B 4.526e-05
*END

*R_NET i_X_DATA\[16\] 5.700e-03
*DRIVER i_X_DATA\[16\]
*CELL NULL
*C2_R1_C1 2.850e-03 7.940e-03 2.850e-03 
*LOADS
*RC U581:B 4.526e-05
*END

*R_NET i_X_DATA\[15\] 5.700e-03
*DRIVER i_X_DATA\[15\]
*CELL NULL
*C2_R1_C1 2.850e-03 7.940e-03 2.850e-03 
*LOADS
*RC U582:B 4.526e-05
*END

*R_NET i_X_DATA\[14\] 5.700e-03
*DRIVER i_X_DATA\[14\]
*CELL NULL
*C2_R1_C1 2.850e-03 7.940e-03 2.850e-03 
*LOADS
*RC U583:B 4.526e-05
*END

*R_NET i_X_DATA\[13\] 5.700e-03
*DRIVER i_X_DATA\[13\]
*CELL NULL
*C2_R1_C1 2.850e-03 7.940e-03 2.850e-03 
*LOADS
*RC U584:B 4.526e-05
*END

*R_NET i_X_DATA\[12\] 5.700e-03
*DRIVER i_X_DATA\[12\]
*CELL NULL
*C2_R1_C1 2.850e-03 7.940e-03 2.850e-03 
*LOADS
*RC U585:B 4.526e-05
*END

*R_NET i_X_DATA\[11\] 5.700e-03
*DRIVER i_X_DATA\[11\]
*CELL NULL
*C2_R1_C1 2.850e-03 7.940e-03 2.850e-03 
*LOADS
*RC U586:B 4.526e-05
*END

*R_NET i_X_DATA\[10\] 5.700e-03
*DRIVER i_X_DATA\[10\]
*CELL NULL
*C2_R1_C1 2.850e-03 7.940e-03 2.850e-03 
*LOADS
*RC U587:B 4.526e-05
*END

*R_NET i_X_DATA\[9\] 5.700e-03
*DRIVER i_X_DATA\[9\]
*CELL NULL
*C2_R1_C1 2.850e-03 7.940e-03 2.850e-03 
*LOADS
*RC U588:B 4.526e-05
*END

*R_NET i_X_DATA\[8\] 5.700e-03
*DRIVER i_X_DATA\[8\]
*CELL NULL
*C2_R1_C1 2.850e-03 7.940e-03 2.850e-03 
*LOADS
*RC U589:B 4.526e-05
*END

*R_NET i_X_DATA\[7\] 5.700e-03
*DRIVER i_X_DATA\[7\]
*CELL NULL
*C2_R1_C1 2.850e-03 7.940e-03 2.850e-03 
*LOADS
*RC U590:B 4.526e-05
*END

*R_NET i_X_DATA\[6\] 5.700e-03
*DRIVER i_X_DATA\[6\]
*CELL NULL
*C2_R1_C1 2.850e-03 7.940e-03 2.850e-03 
*LOADS
*RC U591:B 4.526e-05
*END

*R_NET i_X_DATA\[5\] 5.700e-03
*DRIVER i_X_DATA\[5\]
*CELL NULL
*C2_R1_C1 2.850e-03 7.940e-03 2.850e-03 
*LOADS
*RC U592:B 4.526e-05
*END

*R_NET i_X_DATA\[4\] 5.700e-03
*DRIVER i_X_DATA\[4\]
*CELL NULL
*C2_R1_C1 2.850e-03 7.940e-03 2.850e-03 
*LOADS
*RC U593:B 4.526e-05
*END

*R_NET i_X_DATA\[3\] 5.700e-03
*DRIVER i_X_DATA\[3\]
*CELL NULL
*C2_R1_C1 2.850e-03 7.940e-03 2.850e-03 
*LOADS
*RC U594:B 4.526e-05
*END

*R_NET i_X_DATA\[2\] 5.700e-03
*DRIVER i_X_DATA\[2\]
*CELL NULL
*C2_R1_C1 2.850e-03 7.940e-03 2.850e-03 
*LOADS
*RC U595:B 4.526e-05
*END

*R_NET i_X_DATA\[1\] 5.700e-03
*DRIVER i_X_DATA\[1\]
*CELL NULL
*C2_R1_C1 2.850e-03 7.940e-03 2.850e-03 
*LOADS
*RC U596:B 4.526e-05
*END

*R_NET i_X_DATA\[0\] 5.700e-03
*DRIVER i_X_DATA\[0\]
*CELL NULL
*C2_R1_C1 2.850e-03 7.940e-03 2.850e-03 
*LOADS
*RC U597:B 4.526e-05
*END

*R_NET i_X_DATA_VALID 5.700e-03
*DRIVER i_X_DATA_VALID
*CELL NULL
*C2_R1_C1 2.850e-03 7.940e-03 2.850e-03 
*LOADS
*RC U525:B 4.526e-05
*END

*R_NET o_X_DATA_READY 2.237e-02
*DRIVER o_X_DATA_READY_reg:Q
*CELL fd1eqd1_hd
*C2_R1_C1 1.118e-02 1.157e-02 1.118e-02 
*LOADS
*RC U525:A 2.588e-04
*RC o_X_DATA_READY 2.588e-04
*END

*R_NET o_Y_DATA\[31\] 4.070e-02
*DRIVER o_Y_DATA_reg_31_:Q
*CELL fd2qd1_hd
*C2_R1_C1 2.035e-02 1.824e-02 2.035e-02 
*LOADS
*RC U663:B 7.424e-04
*RC U1024:C 7.424e-04
*RC U1088:B 7.424e-04
*RC o_Y_DATA\[31\] 7.424e-04
*END

*R_NET o_Y_DATA\[30\] 2.803e-02
*DRIVER o_Y_DATA_reg_30_:Q
*CELL fd2qd1_hd
*C2_R1_C1 1.402e-02 1.366e-02 1.402e-02 
*LOADS
*RC U670:B 3.829e-04
*RC U792:A 3.829e-04
*RC o_Y_DATA\[30\] 3.829e-04
*END

*R_NET o_Y_DATA\[29\] 2.803e-02
*DRIVER o_Y_DATA_reg_29_:Q
*CELL fd2qd1_hd
*C2_R1_C1 1.402e-02 1.366e-02 1.402e-02 
*LOADS
*RC U623:B 3.829e-04
*RC U811:A 3.829e-04
*RC o_Y_DATA\[29\] 3.829e-04
*END

*R_NET o_Y_DATA\[28\] 2.803e-02
*DRIVER o_Y_DATA_reg_28_:Q
*CELL fd2qd1_hd
*C2_R1_C1 1.402e-02 1.366e-02 1.402e-02 
*LOADS
*RC U627:B 3.829e-04
*RC U810:A 3.829e-04
*RC o_Y_DATA\[28\] 3.829e-04
*END

*R_NET o_Y_DATA\[27\] 2.803e-02
*DRIVER o_Y_DATA_reg_27_:Q
*CELL fd2qd1_hd
*C2_R1_C1 1.402e-02 1.366e-02 1.402e-02 
*LOADS
*RC U630:B 3.829e-04
*RC U809:A 3.829e-04
*RC o_Y_DATA\[27\] 3.829e-04
*END

*R_NET o_Y_DATA\[26\] 2.803e-02
*DRIVER o_Y_DATA_reg_26_:Q
*CELL fd2qd1_hd
*C2_R1_C1 1.402e-02 1.366e-02 1.402e-02 
*LOADS
*RC U632:B 3.829e-04
*RC U816:A 3.829e-04
*RC o_Y_DATA\[26\] 3.829e-04
*END

*R_NET o_Y_DATA\[25\] 2.803e-02
*DRIVER o_Y_DATA_reg_25_:Q
*CELL fd2qd1_hd
*C2_R1_C1 1.402e-02 1.366e-02 1.402e-02 
*LOADS
*RC U633:B 3.829e-04
*RC U812:A 3.829e-04
*RC o_Y_DATA\[25\] 3.829e-04
*END

*R_NET o_Y_DATA\[24\] 2.803e-02
*DRIVER o_Y_DATA_reg_24_:Q
*CELL fd2qd1_hd
*C2_R1_C1 1.402e-02 1.366e-02 1.402e-02 
*LOADS
*RC U634:B 3.829e-04
*RC U797:A 3.829e-04
*RC o_Y_DATA\[24\] 3.829e-04
*END

*R_NET o_Y_DATA\[23\] 2.803e-02
*DRIVER o_Y_DATA_reg_23_:Q
*CELL fd2qd1_hd
*C2_R1_C1 1.402e-02 1.366e-02 1.402e-02 
*LOADS
*RC U635:B 3.829e-04
*RC U799:A 3.829e-04
*RC o_Y_DATA\[23\] 3.829e-04
*END

*R_NET o_Y_DATA\[22\] 2.803e-02
*DRIVER o_Y_DATA_reg_22_:Q
*CELL fd2qd1_hd
*C2_R1_C1 1.402e-02 1.366e-02 1.402e-02 
*LOADS
*RC U636:B 3.829e-04
*RC U800:A 3.829e-04
*RC o_Y_DATA\[22\] 3.829e-04
*END

*R_NET o_Y_DATA\[21\] 2.803e-02
*DRIVER o_Y_DATA_reg_21_:Q
*CELL fd2qd1_hd
*C2_R1_C1 1.402e-02 1.366e-02 1.402e-02 
*LOADS
*RC U637:B 3.829e-04
*RC U785:A 3.829e-04
*RC o_Y_DATA\[21\] 3.829e-04
*END

*R_NET o_Y_DATA\[20\] 2.803e-02
*DRIVER o_Y_DATA_reg_20_:Q
*CELL fd2qd1_hd
*C2_R1_C1 1.402e-02 1.366e-02 1.402e-02 
*LOADS
*RC U638:B 3.829e-04
*RC U790:A 3.829e-04
*RC o_Y_DATA\[20\] 3.829e-04
*END

*R_NET o_Y_DATA\[19\] 2.803e-02
*DRIVER o_Y_DATA_reg_19_:Q
*CELL fd2qd1_hd
*C2_R1_C1 1.402e-02 1.366e-02 1.402e-02 
*LOADS
*RC U639:B 3.829e-04
*RC U786:A 3.829e-04
*RC o_Y_DATA\[19\] 3.829e-04
*END

*R_NET o_Y_DATA\[18\] 2.803e-02
*DRIVER o_Y_DATA_reg_18_:Q
*CELL fd2qd1_hd
*C2_R1_C1 1.402e-02 1.366e-02 1.402e-02 
*LOADS
*RC U641:B 3.829e-04
*RC U787:A 3.829e-04
*RC o_Y_DATA\[18\] 3.829e-04
*END

*R_NET o_Y_DATA\[17\] 2.803e-02
*DRIVER o_Y_DATA_reg_17_:Q
*CELL fd2qd1_hd
*C2_R1_C1 1.402e-02 1.366e-02 1.402e-02 
*LOADS
*RC U643:B 3.829e-04
*RC U788:A 3.829e-04
*RC o_Y_DATA\[17\] 3.829e-04
*END

*R_NET o_Y_DATA\[16\] 2.803e-02
*DRIVER o_Y_DATA_reg_16_:Q
*CELL fd2qd1_hd
*C2_R1_C1 1.402e-02 1.366e-02 1.402e-02 
*LOADS
*RC U645:B 3.829e-04
*RC U795:A 3.829e-04
*RC o_Y_DATA\[16\] 3.829e-04
*END

*R_NET o_Y_DATA\[15\] 2.803e-02
*DRIVER o_Y_DATA_reg_15_:Q
*CELL fd2qd1_hd
*C2_R1_C1 1.402e-02 1.366e-02 1.402e-02 
*LOADS
*RC U648:B 3.829e-04
*RC U805:A 3.829e-04
*RC o_Y_DATA\[15\] 3.829e-04
*END

*R_NET o_Y_DATA\[14\] 2.803e-02
*DRIVER o_Y_DATA_reg_14_:Q
*CELL fd2qd1_hd
*C2_R1_C1 1.402e-02 1.366e-02 1.402e-02 
*LOADS
*RC U649:B 3.829e-04
*RC U796:A 3.829e-04
*RC o_Y_DATA\[14\] 3.829e-04
*END

*R_NET o_Y_DATA\[13\] 2.803e-02
*DRIVER o_Y_DATA_reg_13_:Q
*CELL fd2qd1_hd
*C2_R1_C1 1.402e-02 1.366e-02 1.402e-02 
*LOADS
*RC U650:B 3.829e-04
*RC U789:A 3.829e-04
*RC o_Y_DATA\[13\] 3.829e-04
*END

*R_NET o_Y_DATA\[12\] 2.803e-02
*DRIVER o_Y_DATA_reg_12_:Q
*CELL fd2qd1_hd
*C2_R1_C1 1.402e-02 1.366e-02 1.402e-02 
*LOADS
*RC U651:B 3.829e-04
*RC U791:A 3.829e-04
*RC o_Y_DATA\[12\] 3.829e-04
*END

*R_NET o_Y_DATA\[11\] 2.803e-02
*DRIVER o_Y_DATA_reg_11_:Q
*CELL fd2qd1_hd
*C2_R1_C1 1.402e-02 1.366e-02 1.402e-02 
*LOADS
*RC U653:B 3.829e-04
*RC U793:A 3.829e-04
*RC o_Y_DATA\[11\] 3.829e-04
*END

*R_NET o_Y_DATA\[10\] 2.803e-02
*DRIVER o_Y_DATA_reg_10_:Q
*CELL fd2qd1_hd
*C2_R1_C1 1.402e-02 1.366e-02 1.402e-02 
*LOADS
*RC U657:B 3.829e-04
*RC U794:A 3.829e-04
*RC o_Y_DATA\[10\] 3.829e-04
*END

*R_NET o_Y_DATA\[9\] 2.803e-02
*DRIVER o_Y_DATA_reg_9_:Q
*CELL fd2qd1_hd
*C2_R1_C1 1.402e-02 1.366e-02 1.402e-02 
*LOADS
*RC U656:B 3.829e-04
*RC U798:A 3.829e-04
*RC o_Y_DATA\[9\] 3.829e-04
*END

*R_NET o_Y_DATA\[8\] 2.803e-02
*DRIVER o_Y_DATA_reg_8_:Q
*CELL fd2qd1_hd
*C2_R1_C1 1.402e-02 1.366e-02 1.402e-02 
*LOADS
*RC U655:B 3.829e-04
*RC U801:A 3.829e-04
*RC o_Y_DATA\[8\] 3.829e-04
*END

*R_NET o_Y_DATA\[7\] 2.803e-02
*DRIVER o_Y_DATA_reg_7_:Q
*CELL fd2qd1_hd
*C2_R1_C1 1.402e-02 1.366e-02 1.402e-02 
*LOADS
*RC U654:B 3.829e-04
*RC U802:A 3.829e-04
*RC o_Y_DATA\[7\] 3.829e-04
*END

*R_NET o_Y_DATA\[6\] 2.803e-02
*DRIVER o_Y_DATA_reg_6_:Q
*CELL fd2qd1_hd
*C2_R1_C1 1.402e-02 1.366e-02 1.402e-02 
*LOADS
*RC U652:B 3.829e-04
*RC U803:A 3.829e-04
*RC o_Y_DATA\[6\] 3.829e-04
*END

*R_NET o_Y_DATA\[5\] 2.803e-02
*DRIVER o_Y_DATA_reg_5_:Q
*CELL fd2qd1_hd
*C2_R1_C1 1.402e-02 1.366e-02 1.402e-02 
*LOADS
*RC U671:B 3.829e-04
*RC U804:A 3.829e-04
*RC o_Y_DATA\[5\] 3.829e-04
*END

*R_NET o_Y_DATA\[4\] 2.803e-02
*DRIVER o_Y_DATA_reg_4_:Q
*CELL fd2qd1_hd
*C2_R1_C1 1.402e-02 1.366e-02 1.402e-02 
*LOADS
*RC U665:B 3.829e-04
*RC U806:A 3.829e-04
*RC o_Y_DATA\[4\] 3.829e-04
*END

*R_NET o_Y_DATA\[3\] 2.803e-02
*DRIVER o_Y_DATA_reg_3_:Q
*CELL fd2qd1_hd
*C2_R1_C1 1.402e-02 1.366e-02 1.402e-02 
*LOADS
*RC U667:B 3.829e-04
*RC U807:A 3.829e-04
*RC o_Y_DATA\[3\] 3.829e-04
*END

*R_NET o_Y_DATA\[2\] 2.803e-02
*DRIVER o_Y_DATA_reg_2_:Q
*CELL fd2qd1_hd
*C2_R1_C1 1.402e-02 1.366e-02 1.402e-02 
*LOADS
*RC U666:B 3.829e-04
*RC U808:A 3.829e-04
*RC o_Y_DATA\[2\] 3.829e-04
*END

*R_NET o_Y_DATA\[1\] 2.803e-02
*DRIVER o_Y_DATA_reg_1_:Q
*CELL fd2qd1_hd
*C2_R1_C1 1.402e-02 1.366e-02 1.402e-02 
*LOADS
*RC U673:B 3.829e-04
*RC U783:A 3.829e-04
*RC o_Y_DATA\[1\] 3.829e-04
*END

*R_NET o_Y_DATA\[0\] 2.803e-02
*DRIVER o_Y_DATA_reg_0_:Q
*CELL fd2qd1_hd
*C2_R1_C1 1.402e-02 1.366e-02 1.402e-02 
*LOADS
*RC U660:B 3.829e-04
*RC U784:A 3.829e-04
*RC o_Y_DATA\[0\] 3.829e-04
*END

*R_NET o_Y_DATA_VALID 2.835e-02
*DRIVER o_Y_DATA_VALID_reg:Q
*CELL fd2qd1_hd
*C2_R1_C1 1.417e-02 1.366e-02 1.417e-02 
*LOADS
*RC U825:B 3.873e-04
*RC U961:C 3.873e-04
*RC o_Y_DATA_VALID 3.873e-04
*END

*R_NET i_Y_ACK 5.240e-03
*DRIVER i_Y_ACK
*CELL NULL
*C2_R1_C1 2.620e-03 7.940e-03 2.620e-03 
*LOADS
*RC U825:A 4.161e-05
*END

*R_NET i_CLK 1.580e+01
*DRIVER i_CLK
*CELL NULL
*C2_R1_C1 7.902e+00 0.000e+00 7.902e+00 
*LOADS
*RC mult/state_reg_2_:CK 0.000e+00
*RC mult/a_m_reg_8_:CK 0.000e+00
*RC mult/a_m_reg_2_:CK 0.000e+00
*RC mult/state_reg_1_:CK 0.000e+00
*RC mult/a_e_reg_7_:CK 0.000e+00
*RC mult/o_AB_ACK_reg:CK 0.000e+00
*RC mult/product_reg_49_:CK 0.000e+00
*RC mult/product_reg_48_:CK 0.000e+00
*RC mult/product_reg_47_:CK 0.000e+00
*RC mult/product_reg_46_:CK 0.000e+00
*RC mult/product_reg_45_:CK 0.000e+00
*RC mult/product_reg_44_:CK 0.000e+00
*RC mult/product_reg_43_:CK 0.000e+00
*RC mult/product_reg_42_:CK 0.000e+00
*RC mult/product_reg_41_:CK 0.000e+00
*RC mult/product_reg_40_:CK 0.000e+00
*RC mult/product_reg_39_:CK 0.000e+00
*RC mult/product_reg_38_:CK 0.000e+00
*RC mult/product_reg_37_:CK 0.000e+00
*RC mult/product_reg_36_:CK 0.000e+00
*RC mult/product_reg_35_:CK 0.000e+00
*RC mult/product_reg_34_:CK 0.000e+00
*RC mult/product_reg_33_:CK 0.000e+00
*RC mult/product_reg_32_:CK 0.000e+00
*RC mult/product_reg_31_:CK 0.000e+00
*RC mult/product_reg_30_:CK 0.000e+00
*RC mult/product_reg_29_:CK 0.000e+00
*RC mult/product_reg_28_:CK 0.000e+00
*RC mult/product_reg_27_:CK 0.000e+00
*RC mult/product_reg_26_:CK 0.000e+00
*RC mult/product_reg_25_:CK 0.000e+00
*RC mult/product_reg_24_:CK 0.000e+00
*RC mult/product_reg_23_:CK 0.000e+00
*RC mult/product_reg_22_:CK 0.000e+00
*RC mult/product_reg_21_:CK 0.000e+00
*RC mult/product_reg_20_:CK 0.000e+00
*RC mult/product_reg_19_:CK 0.000e+00
*RC mult/product_reg_18_:CK 0.000e+00
*RC mult/product_reg_17_:CK 0.000e+00
*RC mult/product_reg_16_:CK 0.000e+00
*RC mult/product_reg_15_:CK 0.000e+00
*RC mult/product_reg_14_:CK 0.000e+00
*RC mult/product_reg_13_:CK 0.000e+00
*RC mult/product_reg_12_:CK 0.000e+00
*RC mult/product_reg_11_:CK 0.000e+00
*RC mult/z_e_reg_9_:CK 0.000e+00
*RC mult/product_reg_10_:CK 0.000e+00
*RC mult/z_e_reg_8_:CK 0.000e+00
*RC mult/product_reg_9_:CK 0.000e+00
*RC mult/z_e_reg_7_:CK 0.000e+00
*RC mult/product_reg_8_:CK 0.000e+00
*RC mult/z_e_reg_6_:CK 0.000e+00
*RC mult/product_reg_7_:CK 0.000e+00
*RC mult/z_e_reg_5_:CK 0.000e+00
*RC mult/product_reg_6_:CK 0.000e+00
*RC mult/z_e_reg_4_:CK 0.000e+00
*RC mult/z_e_reg_3_:CK 0.000e+00
*RC mult/product_reg_5_:CK 0.000e+00
*RC mult/z_e_reg_2_:CK 0.000e+00
*RC mult/product_reg_4_:CK 0.000e+00
*RC mult/z_e_reg_1_:CK 0.000e+00
*RC mult/z_e_reg_0_:CK 0.000e+00
*RC mult/product_reg_3_:CK 0.000e+00
*RC mult/b_s_reg:CK 0.000e+00
*RC mult/a_reg_17_:CK 0.000e+00
*RC mult/a_reg_21_:CK 0.000e+00
*RC mult/a_reg_22_:CK 0.000e+00
*RC mult/a_reg_24_:CK 0.000e+00
*RC mult/a_reg_25_:CK 0.000e+00
*RC mult/a_reg_26_:CK 0.000e+00
*RC mult/b_reg_2_:CK 0.000e+00
*RC mult/b_reg_3_:CK 0.000e+00
*RC mult/b_reg_4_:CK 0.000e+00
*RC mult/b_reg_5_:CK 0.000e+00
*RC mult/b_reg_6_:CK 0.000e+00
*RC mult/b_reg_7_:CK 0.000e+00
*RC mult/b_reg_8_:CK 0.000e+00
*RC mult/b_reg_9_:CK 0.000e+00
*RC mult/b_reg_10_:CK 0.000e+00
*RC mult/b_reg_11_:CK 0.000e+00
*RC mult/b_reg_12_:CK 0.000e+00
*RC mult/b_reg_13_:CK 0.000e+00
*RC mult/b_reg_14_:CK 0.000e+00
*RC mult/b_reg_15_:CK 0.000e+00
*RC mult/b_reg_16_:CK 0.000e+00
*RC mult/b_reg_17_:CK 0.000e+00
*RC mult/b_reg_18_:CK 0.000e+00
*RC mult/b_reg_19_:CK 0.000e+00
*RC mult/b_reg_20_:CK 0.000e+00
*RC mult/b_reg_21_:CK 0.000e+00
*RC mult/b_reg_22_:CK 0.000e+00
*RC mult/b_reg_23_:CK 0.000e+00
*RC mult/b_reg_24_:CK 0.000e+00
*RC mult/b_reg_25_:CK 0.000e+00
*RC mult/o_Z_reg_19_:CK 0.000e+00
*RC mult/o_Z_reg_20_:CK 0.000e+00
*RC mult/o_Z_reg_21_:CK 0.000e+00
*RC mult/o_Z_reg_22_:CK 0.000e+00
*RC mult/o_Z_reg_23_:CK 0.000e+00
*RC mult/o_Z_reg_25_:CK 0.000e+00
*RC mult/o_Z_reg_26_:CK 0.000e+00
*RC mult/o_Z_reg_27_:CK 0.000e+00
*RC mult/o_Z_reg_28_:CK 0.000e+00
*RC mult/o_Z_reg_29_:CK 0.000e+00
*RC mult/o_Z_reg_30_:CK 0.000e+00
*RC mult/o_Z_reg_31_:CK 0.000e+00
*RC mult/guard_reg:CK 0.000e+00
*RC mult/a_reg_27_:CK 0.000e+00
*RC mult/a_reg_28_:CK 0.000e+00
*RC mult/b_reg_0_:CK 0.000e+00
*RC mult/b_reg_30_:CK 0.000e+00
*RC mult/b_reg_26_:CK 0.000e+00
*RC mult/b_reg_29_:CK 0.000e+00
*RC mult/b_reg_31_:CK 0.000e+00
*RC mult/o_Z_reg_8_:CK 0.000e+00
*RC mult/o_Z_reg_9_:CK 0.000e+00
*RC mult/o_Z_reg_10_:CK 0.000e+00
*RC mult/o_Z_reg_11_:CK 0.000e+00
*RC mult/o_Z_reg_12_:CK 0.000e+00
*RC mult/o_Z_reg_13_:CK 0.000e+00
*RC mult/o_Z_reg_0_:CK 0.000e+00
*RC mult/o_Z_reg_1_:CK 0.000e+00
*RC mult/o_Z_reg_5_:CK 0.000e+00
*RC mult/a_reg_0_:CK 0.000e+00
*RC mult/a_reg_1_:CK 0.000e+00
*RC mult/a_reg_5_:CK 0.000e+00
*RC mult/a_reg_6_:CK 0.000e+00
*RC mult/a_reg_7_:CK 0.000e+00
*RC mult/product_reg_2_:CK 0.000e+00
*RC mult/z_s_reg:CK 0.000e+00
*RC mult/o_Z_reg_14_:CK 0.000e+00
*RC mult/o_Z_reg_15_:CK 0.000e+00
*RC mult/o_Z_reg_16_:CK 0.000e+00
*RC mult/o_Z_reg_24_:CK 0.000e+00
*RC mult/a_reg_29_:CK 0.000e+00
*RC mult/b_reg_1_:CK 0.000e+00
*RC mult/b_reg_27_:CK 0.000e+00
*RC mult/b_reg_28_:CK 0.000e+00
*RC mult/o_Z_reg_2_:CK 0.000e+00
*RC mult/o_Z_reg_6_:CK 0.000e+00
*RC mult/o_Z_reg_7_:CK 0.000e+00
*RC mult/a_reg_8_:CK 0.000e+00
*RC mult/a_reg_14_:CK 0.000e+00
*RC mult/a_reg_16_:CK 0.000e+00
*RC mult/o_Z_reg_3_:CK 0.000e+00
*RC mult/o_Z_reg_4_:CK 0.000e+00
*RC mult/o_Z_reg_17_:CK 0.000e+00
*RC mult/o_Z_reg_18_:CK 0.000e+00
*RC mult/a_reg_9_:CK 0.000e+00
*RC mult/a_reg_11_:CK 0.000e+00
*RC mult/a_reg_13_:CK 0.000e+00
*RC mult/o_Z_STB_reg:CK 0.000e+00
*RC mult/sticky_reg:CK 0.000e+00
*RC mult/b_m_reg_23_:CK 0.000e+00
*RC mult/z_reg_10_:CK 0.000e+00
*RC mult/z_reg_9_:CK 0.000e+00
*RC mult/a_m_reg_1_:CK 0.000e+00
*RC mult/a_m_reg_22_:CK 0.000e+00
*RC mult/b_m_reg_0_:CK 0.000e+00
*RC mult/a_m_reg_20_:CK 0.000e+00
*RC mult/a_m_reg_19_:CK 0.000e+00
*RC mult/a_m_reg_12_:CK 0.000e+00
*RC mult/a_m_reg_0_:CK 0.000e+00
*RC mult/a_m_reg_14_:CK 0.000e+00
*RC mult/a_m_reg_21_:CK 0.000e+00
*RC mult/a_m_reg_18_:CK 0.000e+00
*RC mult/a_m_reg_15_:CK 0.000e+00
*RC mult/a_m_reg_10_:CK 0.000e+00
*RC mult/a_m_reg_4_:CK 0.000e+00
*RC mult/a_m_reg_17_:CK 0.000e+00
*RC mult/a_m_reg_3_:CK 0.000e+00
*RC mult/b_m_reg_21_:CK 0.000e+00
*RC mult/b_m_reg_17_:CK 0.000e+00
*RC mult/b_m_reg_8_:CK 0.000e+00
*RC mult/b_m_reg_5_:CK 0.000e+00
*RC mult/b_m_reg_1_:CK 0.000e+00
*RC mult/b_m_reg_18_:CK 0.000e+00
*RC mult/b_m_reg_15_:CK 0.000e+00
*RC mult/b_m_reg_9_:CK 0.000e+00
*RC mult/b_m_reg_19_:CK 0.000e+00
*RC mult/b_m_reg_3_:CK 0.000e+00
*RC mult/state_reg_0_:CK 0.000e+00
*RC mult/b_m_reg_16_:CK 0.000e+00
*RC mult/b_m_reg_14_:CK 0.000e+00
*RC mult/b_m_reg_13_:CK 0.000e+00
*RC mult/b_m_reg_12_:CK 0.000e+00
*RC mult/b_m_reg_22_:CK 0.000e+00
*RC mult/b_m_reg_2_:CK 0.000e+00
*RC mult/b_m_reg_11_:CK 0.000e+00
*RC mult/b_m_reg_10_:CK 0.000e+00
*RC mult/b_m_reg_7_:CK 0.000e+00
*RC mult/b_m_reg_6_:CK 0.000e+00
*RC mult/b_m_reg_4_:CK 0.000e+00
*RC mult/b_m_reg_20_:CK 0.000e+00
*RC mult/a_m_reg_9_:CK 0.000e+00
*RC mult/a_m_reg_11_:CK 0.000e+00
*RC mult/a_m_reg_16_:CK 0.000e+00
*RC mult/a_m_reg_13_:CK 0.000e+00
*RC mult/a_m_reg_6_:CK 0.000e+00
*RC mult/a_m_reg_5_:CK 0.000e+00
*RC mult/b_e_reg_7_:CK 0.000e+00
*RC mult/z_reg_31_:CK 0.000e+00
*RC mult/state_reg_3_:CK 0.000e+00
*RC mult/b_e_reg_0_:CK 0.000e+00
*RC mult/z_m_reg_0_:CK 0.000e+00
*RC mult/a_e_reg_0_:CK 0.000e+00
*RC mult/z_m_reg_3_:CK 0.000e+00
*RC mult/z_m_reg_4_:CK 0.000e+00
*RC mult/z_m_reg_1_:CK 0.000e+00
*RC mult/a_e_reg_4_:CK 0.000e+00
*RC mult/a_e_reg_2_:CK 0.000e+00
*RC mult/a_e_reg_3_:CK 0.000e+00
*RC mult/b_e_reg_3_:CK 0.000e+00
*RC mult/z_m_reg_2_:CK 0.000e+00
*RC mult/b_e_reg_2_:CK 0.000e+00
*RC mult/b_e_reg_6_:CK 0.000e+00
*RC mult/b_e_reg_4_:CK 0.000e+00
*RC mult/a_e_reg_1_:CK 0.000e+00
*RC mult/b_e_reg_1_:CK 0.000e+00
*RC mult/a_e_reg_8_:CK 0.000e+00
*RC mult/b_e_reg_9_:CK 0.000e+00
*RC mult/a_e_reg_9_:CK 0.000e+00
*RC mult/z_m_reg_9_:CK 0.000e+00
*RC mult/z_m_reg_5_:CK 0.000e+00
*RC mult/b_e_reg_8_:CK 0.000e+00
*RC mult/z_m_reg_12_:CK 0.000e+00
*RC mult/z_m_reg_8_:CK 0.000e+00
*RC mult/z_m_reg_10_:CK 0.000e+00
*RC mult/z_m_reg_6_:CK 0.000e+00
*RC mult/z_m_reg_11_:CK 0.000e+00
*RC mult/z_m_reg_7_:CK 0.000e+00
*RC mult/b_e_reg_5_:CK 0.000e+00
*RC mult/a_e_reg_6_:CK 0.000e+00
*RC mult/a_e_reg_5_:CK 0.000e+00
*RC mult/z_m_reg_23_:CK 0.000e+00
*RC mult/round_bit_reg:CK 0.000e+00
*RC mult/z_m_reg_17_:CK 0.000e+00
*RC mult/z_m_reg_13_:CK 0.000e+00
*RC mult/z_m_reg_22_:CK 0.000e+00
*RC mult/z_m_reg_20_:CK 0.000e+00
*RC mult/z_m_reg_16_:CK 0.000e+00
*RC mult/z_m_reg_21_:CK 0.000e+00
*RC mult/z_m_reg_18_:CK 0.000e+00
*RC mult/z_m_reg_14_:CK 0.000e+00
*RC mult/z_m_reg_19_:CK 0.000e+00
*RC mult/z_m_reg_15_:CK 0.000e+00
*RC mult/z_reg_22_:CK 0.000e+00
*RC mult/z_reg_25_:CK 0.000e+00
*RC mult/z_reg_27_:CK 0.000e+00
*RC mult/z_reg_29_:CK 0.000e+00
*RC mult/z_reg_23_:CK 0.000e+00
*RC mult/z_reg_24_:CK 0.000e+00
*RC mult/z_reg_26_:CK 0.000e+00
*RC mult/z_reg_28_:CK 0.000e+00
*RC mult/z_reg_0_:CK 0.000e+00
*RC mult/z_reg_1_:CK 0.000e+00
*RC mult/z_reg_2_:CK 0.000e+00
*RC mult/z_reg_3_:CK 0.000e+00
*RC mult/z_reg_4_:CK 0.000e+00
*RC mult/z_reg_5_:CK 0.000e+00
*RC mult/z_reg_6_:CK 0.000e+00
*RC mult/z_reg_7_:CK 0.000e+00
*RC mult/z_reg_8_:CK 0.000e+00
*RC mult/z_reg_11_:CK 0.000e+00
*RC mult/z_reg_12_:CK 0.000e+00
*RC mult/z_reg_13_:CK 0.000e+00
*RC mult/z_reg_14_:CK 0.000e+00
*RC mult/z_reg_15_:CK 0.000e+00
*RC mult/z_reg_16_:CK 0.000e+00
*RC mult/z_reg_17_:CK 0.000e+00
*RC mult/z_reg_18_:CK 0.000e+00
*RC mult/z_reg_19_:CK 0.000e+00
*RC mult/z_reg_20_:CK 0.000e+00
*RC mult/z_reg_21_:CK 0.000e+00
*RC mult/z_reg_30_:CK 0.000e+00
*RC mult/a_m_reg_23_:CK 0.000e+00
*RC mult/a_m_reg_7_:CK 0.000e+00
*RC r_pstate_reg_0_:CK 0.000e+00
*RC r_x_data_reg_0_:CK 0.000e+00
*RC o_X_DATA_READY_reg:CK 0.000e+00
*RC o_Y_DATA_VALID_reg:CK 0.000e+00
*RC r_pstate_reg_1_:CK 0.000e+00
*RC r_add_AB_STB_reg:CK 0.000e+00
*RC r_mult_AB_STB_reg:CK 0.000e+00
*RC r_x_data_reg_11_:CK 0.000e+00
*RC r_x_data_reg_9_:CK 0.000e+00
*RC r_x_data_reg_7_:CK 0.000e+00
*RC r_x_data_reg_5_:CK 0.000e+00
*RC r_x_data_reg_16_:CK 0.000e+00
*RC r_y_data_reg_31_:CK 0.000e+00
*RC r_y_data_reg_30_:CK 0.000e+00
*RC r_y_data_reg_5_:CK 0.000e+00
*RC r_y_data_reg_4_:CK 0.000e+00
*RC r_y_data_reg_3_:CK 0.000e+00
*RC r_y_data_reg_2_:CK 0.000e+00
*RC r_y_data_reg_1_:CK 0.000e+00
*RC r_x_data_reg_63_:CK 0.000e+00
*RC r_x_data_reg_56_:CK 0.000e+00
*RC r_x_data_reg_55_:CK 0.000e+00
*RC r_x_data_reg_54_:CK 0.000e+00
*RC r_x_data_reg_53_:CK 0.000e+00
*RC r_x_data_reg_52_:CK 0.000e+00
*RC r_x_data_reg_51_:CK 0.000e+00
*RC r_x_data_reg_50_:CK 0.000e+00
*RC r_x_data_reg_49_:CK 0.000e+00
*RC r_x_data_reg_48_:CK 0.000e+00
*RC r_x_data_reg_47_:CK 0.000e+00
*RC r_x_data_reg_46_:CK 0.000e+00
*RC r_x_data_reg_45_:CK 0.000e+00
*RC r_x_data_reg_17_:CK 0.000e+00
*RC r_x_data_reg_15_:CK 0.000e+00
*RC r_x_data_reg_31_:CK 0.000e+00
*RC r_x_data_reg_28_:CK 0.000e+00
*RC r_x_data_reg_18_:CK 0.000e+00
*RC r_x_data_reg_27_:CK 0.000e+00
*RC r_x_data_reg_25_:CK 0.000e+00
*RC r_x_data_reg_23_:CK 0.000e+00
*RC r_x_data_reg_8_:CK 0.000e+00
*RC r_x_data_reg_38_:CK 0.000e+00
*RC r_x_data_reg_37_:CK 0.000e+00
*RC r_x_data_reg_36_:CK 0.000e+00
*RC r_x_data_reg_35_:CK 0.000e+00
*RC r_x_data_reg_34_:CK 0.000e+00
*RC r_x_data_reg_33_:CK 0.000e+00
*RC r_y_data_reg_0_:CK 0.000e+00
*RC r_x_data_reg_32_:CK 0.000e+00
*RC r_x_data_reg_26_:CK 0.000e+00
*RC r_x_data_reg_14_:CK 0.000e+00
*RC r_x_data_reg_12_:CK 0.000e+00
*RC r_x_data_reg_10_:CK 0.000e+00
*RC r_x_data_reg_6_:CK 0.000e+00
*RC r_x_data_reg_3_:CK 0.000e+00
*RC r_x_data_reg_21_:CK 0.000e+00
*RC r_x_data_reg_13_:CK 0.000e+00
*RC r_x_data_reg_24_:CK 0.000e+00
*RC r_x_data_reg_22_:CK 0.000e+00
*RC r_x_data_reg_20_:CK 0.000e+00
*RC r_x_data_reg_19_:CK 0.000e+00
*RC r_y_data_reg_29_:CK 0.000e+00
*RC r_y_data_reg_28_:CK 0.000e+00
*RC r_y_data_reg_27_:CK 0.000e+00
*RC r_y_data_reg_26_:CK 0.000e+00
*RC r_y_data_reg_25_:CK 0.000e+00
*RC r_y_data_reg_24_:CK 0.000e+00
*RC r_counter_reg_0_:CK 0.000e+00
*RC r_counter_reg_1_:CK 0.000e+00
*RC o_Y_DATA_reg_31_:CK 0.000e+00
*RC o_Y_DATA_reg_30_:CK 0.000e+00
*RC o_Y_DATA_reg_29_:CK 0.000e+00
*RC o_Y_DATA_reg_28_:CK 0.000e+00
*RC o_Y_DATA_reg_27_:CK 0.000e+00
*RC o_Y_DATA_reg_26_:CK 0.000e+00
*RC o_Y_DATA_reg_25_:CK 0.000e+00
*RC o_Y_DATA_reg_24_:CK 0.000e+00
*RC o_Y_DATA_reg_23_:CK 0.000e+00
*RC o_Y_DATA_reg_22_:CK 0.000e+00
*RC o_Y_DATA_reg_21_:CK 0.000e+00
*RC o_Y_DATA_reg_20_:CK 0.000e+00
*RC o_Y_DATA_reg_19_:CK 0.000e+00
*RC o_Y_DATA_reg_18_:CK 0.000e+00
*RC o_Y_DATA_reg_17_:CK 0.000e+00
*RC o_Y_DATA_reg_16_:CK 0.000e+00
*RC o_Y_DATA_reg_15_:CK 0.000e+00
*RC o_Y_DATA_reg_14_:CK 0.000e+00
*RC o_Y_DATA_reg_13_:CK 0.000e+00
*RC o_Y_DATA_reg_12_:CK 0.000e+00
*RC o_Y_DATA_reg_11_:CK 0.000e+00
*RC o_Y_DATA_reg_10_:CK 0.000e+00
*RC o_Y_DATA_reg_9_:CK 0.000e+00
*RC o_Y_DATA_reg_8_:CK 0.000e+00
*RC o_Y_DATA_reg_7_:CK 0.000e+00
*RC o_Y_DATA_reg_6_:CK 0.000e+00
*RC o_Y_DATA_reg_5_:CK 0.000e+00
*RC o_Y_DATA_reg_4_:CK 0.000e+00
*RC o_Y_DATA_reg_3_:CK 0.000e+00
*RC o_Y_DATA_reg_2_:CK 0.000e+00
*RC o_Y_DATA_reg_1_:CK 0.000e+00
*RC o_Y_DATA_reg_0_:CK 0.000e+00
*RC r_add_Z_ACK_reg:CK 0.000e+00
*RC r_mult_Z_ACK_reg:CK 0.000e+00
*RC r_mult_B_reg_31_:CK 0.000e+00
*RC r_mult_B_reg_30_:CK 0.000e+00
*RC r_mult_B_reg_29_:CK 0.000e+00
*RC r_mult_B_reg_28_:CK 0.000e+00
*RC r_mult_B_reg_27_:CK 0.000e+00
*RC r_mult_B_reg_26_:CK 0.000e+00
*RC r_mult_B_reg_25_:CK 0.000e+00
*RC r_mult_B_reg_24_:CK 0.000e+00
*RC r_mult_B_reg_23_:CK 0.000e+00
*RC r_mult_B_reg_22_:CK 0.000e+00
*RC r_mult_B_reg_21_:CK 0.000e+00
*RC r_mult_B_reg_20_:CK 0.000e+00
*RC r_mult_B_reg_19_:CK 0.000e+00
*RC r_mult_B_reg_18_:CK 0.000e+00
*RC r_mult_B_reg_17_:CK 0.000e+00
*RC r_mult_B_reg_16_:CK 0.000e+00
*RC r_mult_B_reg_15_:CK 0.000e+00
*RC r_mult_B_reg_14_:CK 0.000e+00
*RC r_mult_B_reg_13_:CK 0.000e+00
*RC r_mult_B_reg_12_:CK 0.000e+00
*RC r_mult_B_reg_11_:CK 0.000e+00
*RC r_mult_B_reg_10_:CK 0.000e+00
*RC r_mult_B_reg_9_:CK 0.000e+00
*RC r_mult_B_reg_8_:CK 0.000e+00
*RC r_mult_B_reg_7_:CK 0.000e+00
*RC r_mult_B_reg_6_:CK 0.000e+00
*RC r_mult_B_reg_5_:CK 0.000e+00
*RC r_mult_B_reg_4_:CK 0.000e+00
*RC r_mult_B_reg_3_:CK 0.000e+00
*RC r_mult_B_reg_2_:CK 0.000e+00
*RC r_mult_B_reg_1_:CK 0.000e+00
*RC r_mult_B_reg_0_:CK 0.000e+00
*RC r_y_data_reg_23_:CK 0.000e+00
*RC r_y_data_reg_22_:CK 0.000e+00
*RC r_y_data_reg_21_:CK 0.000e+00
*RC r_y_data_reg_20_:CK 0.000e+00
*RC r_y_data_reg_19_:CK 0.000e+00
*RC r_y_data_reg_18_:CK 0.000e+00
*RC r_y_data_reg_17_:CK 0.000e+00
*RC r_y_data_reg_16_:CK 0.000e+00
*RC r_y_data_reg_15_:CK 0.000e+00
*RC r_y_data_reg_14_:CK 0.000e+00
*RC r_y_data_reg_13_:CK 0.000e+00
*RC r_y_data_reg_12_:CK 0.000e+00