*SPEF "IEEE 1481-1999"
*DESIGN "iir_lpf"
*DATE "Tue Jun  9 05:56:31 2020"
*VENDOR "SYNOPSYS INC"
*PROGRAM "Synopsys Design Compiler cmos"
*VERSION "F-2011.09-SP5-3"
*DESIGN_FLOW "SYNTHESIS"
*DIVIDER /
*DELIMITER :
*BUS_DELIMITER []
*T_UNIT 1.0 NS
*C_UNIT 1.0 PF
*R_UNIT 1.0 KOHM
*L_UNIT 1.0 HENRY

*PORTS

i_X_DATA\[31\] I *L 1.900e-03 *S 1.462e-01 1.662e-01 *D fd4qd1_hd 
i_X_DATA\[30\] I *L 1.900e-03 *S 1.462e-01 1.662e-01 *D fd4qd1_hd 
i_X_DATA\[29\] I *L 1.900e-03 *S 1.462e-01 1.662e-01 *D fd4qd1_hd 
i_X_DATA\[28\] I *L 1.900e-03 *S 1.462e-01 1.662e-01 *D fd4qd1_hd 
i_X_DATA\[27\] I *L 1.900e-03 *S 1.462e-01 1.662e-01 *D fd4qd1_hd 
i_X_DATA\[26\] I *L 1.900e-03 *S 1.462e-01 1.662e-01 *D fd4qd1_hd 
i_X_DATA\[25\] I *L 1.900e-03 *S 1.462e-01 1.662e-01 *D fd4qd1_hd 
i_X_DATA\[24\] I *L 1.900e-03 *S 1.462e-01 1.662e-01 *D fd4qd1_hd 
i_X_DATA\[23\] I *L 1.900e-03 *S 1.462e-01 1.662e-01 *D fd4qd1_hd 
i_X_DATA\[22\] I *L 1.900e-03 *S 1.462e-01 1.662e-01 *D fd4qd1_hd 
i_X_DATA\[21\] I *L 1.900e-03 *S 1.462e-01 1.662e-01 *D fd4qd1_hd 
i_X_DATA\[20\] I *L 1.900e-03 *S 1.462e-01 1.662e-01 *D fd4qd1_hd 
i_X_DATA\[19\] I *L 1.900e-03 *S 1.462e-01 1.662e-01 *D fd4qd1_hd 
i_X_DATA\[18\] I *L 1.900e-03 *S 1.462e-01 1.662e-01 *D fd4qd1_hd 
i_X_DATA\[17\] I *L 1.900e-03 *S 1.462e-01 1.662e-01 *D fd4qd1_hd 
i_X_DATA\[16\] I *L 1.900e-03 *S 1.462e-01 1.662e-01 *D fd4qd1_hd 
i_X_DATA\[15\] I *L 1.900e-03 *S 1.462e-01 1.662e-01 *D fd4qd1_hd 
i_X_DATA\[14\] I *L 1.900e-03 *S 1.462e-01 1.662e-01 *D fd4qd1_hd 
i_X_DATA\[13\] I *L 1.900e-03 *S 1.462e-01 1.662e-01 *D fd4qd1_hd 
i_X_DATA\[12\] I *L 1.900e-03 *S 1.462e-01 1.662e-01 *D fd4qd1_hd 
i_X_DATA\[11\] I *L 1.900e-03 *S 1.462e-01 1.662e-01 *D fd4qd1_hd 
i_X_DATA\[10\] I *L 1.900e-03 *S 1.462e-01 1.662e-01 *D fd4qd1_hd 
i_X_DATA\[9\] I *L 1.900e-03 *S 1.462e-01 1.662e-01 *D fd4qd1_hd 
i_X_DATA\[8\] I *L 1.900e-03 *S 1.462e-01 1.662e-01 *D fd4qd1_hd 
i_X_DATA\[7\] I *L 1.900e-03 *S 1.462e-01 1.662e-01 *D fd4qd1_hd 
i_X_DATA\[6\] I *L 1.900e-03 *S 1.462e-01 1.662e-01 *D fd4qd1_hd 
i_X_DATA\[5\] I *L 1.900e-03 *S 1.462e-01 1.662e-01 *D fd4qd1_hd 
i_X_DATA\[4\] I *L 1.900e-03 *S 1.462e-01 1.662e-01 *D fd4qd1_hd 
i_X_DATA\[3\] I *L 1.900e-03 *S 1.462e-01 1.662e-01 *D fd4qd1_hd 
i_X_DATA\[2\] I *L 1.900e-03 *S 1.462e-01 1.662e-01 *D fd4qd1_hd 
i_X_DATA\[1\] I *L 1.900e-03 *S 1.462e-01 1.662e-01 *D fd4qd1_hd 
i_X_DATA\[0\] I *L 1.900e-03 *S 1.462e-01 1.662e-01 *D fd4qd1_hd 
i_X_DATA_VALID I *L 1.900e-03 *S 1.455e-01 1.655e-01 *D fd4qd1_hd 
o_X_DATA_READY O *L 1.035e-02 *S 3.288e-01 2.391e-01 
o_Y_DATA\[31\] O *L 1.035e-02 *S 2.743e-01 2.973e-01 
o_Y_DATA\[30\] O *L 1.035e-02 *S 2.743e-01 2.973e-01 
o_Y_DATA\[29\] O *L 1.035e-02 *S 2.743e-01 2.973e-01 
o_Y_DATA\[28\] O *L 1.035e-02 *S 2.743e-01 2.973e-01 
o_Y_DATA\[27\] O *L 1.035e-02 *S 2.743e-01 2.973e-01 
o_Y_DATA\[26\] O *L 1.035e-02 *S 2.743e-01 2.973e-01 
o_Y_DATA\[25\] O *L 1.035e-02 *S 2.743e-01 2.973e-01 
o_Y_DATA\[24\] O *L 1.035e-02 *S 2.743e-01 2.973e-01 
o_Y_DATA\[23\] O *L 1.035e-02 *S 2.743e-01 2.973e-01 
o_Y_DATA\[22\] O *L 1.035e-02 *S 2.743e-01 2.973e-01 
o_Y_DATA\[21\] O *L 1.035e-02 *S 2.743e-01 2.973e-01 
o_Y_DATA\[20\] O *L 1.035e-02 *S 2.743e-01 2.973e-01 
o_Y_DATA\[19\] O *L 1.035e-02 *S 2.743e-01 2.973e-01 
o_Y_DATA\[18\] O *L 1.035e-02 *S 2.743e-01 2.973e-01 
o_Y_DATA\[17\] O *L 1.035e-02 *S 2.743e-01 2.973e-01 
o_Y_DATA\[16\] O *L 1.035e-02 *S 2.743e-01 2.973e-01 
o_Y_DATA\[15\] O *L 1.035e-02 *S 2.743e-01 2.973e-01 
o_Y_DATA\[14\] O *L 1.035e-02 *S 2.743e-01 2.973e-01 
o_Y_DATA\[13\] O *L 1.035e-02 *S 2.743e-01 2.973e-01 
o_Y_DATA\[12\] O *L 1.035e-02 *S 2.743e-01 2.973e-01 
o_Y_DATA\[11\] O *L 1.035e-02 *S 2.743e-01 2.973e-01 
o_Y_DATA\[10\] O *L 1.035e-02 *S 2.743e-01 2.973e-01 
o_Y_DATA\[9\] O *L 1.035e-02 *S 2.743e-01 2.973e-01 
o_Y_DATA\[8\] O *L 1.035e-02 *S 2.743e-01 2.973e-01 
o_Y_DATA\[7\] O *L 1.035e-02 *S 2.743e-01 2.973e-01 
o_Y_DATA\[6\] O *L 1.035e-02 *S 2.743e-01 2.973e-01 
o_Y_DATA\[5\] O *L 1.035e-02 *S 2.743e-01 2.973e-01 
o_Y_DATA\[4\] O *L 1.035e-02 *S 2.743e-01 2.973e-01 
o_Y_DATA\[3\] O *L 1.035e-02 *S 2.743e-01 2.973e-01 
o_Y_DATA\[2\] O *L 1.035e-02 *S 2.743e-01 2.973e-01 
o_Y_DATA\[1\] O *L 1.035e-02 *S 2.743e-01 2.973e-01 
o_Y_DATA\[0\] O *L 1.035e-02 *S 2.743e-01 2.973e-01 
o_Y_DATA_VALID O *L 1.035e-02 *S 3.345e-01 3.464e-01 
i_Y_ACK I *L 1.900e-03 *S 1.506e-01 1.704e-01 *D fd4qd1_hd 
i_CLK I *L 0.000e+00 *S 0.000e+00 0.000e+00 
i_RSTN I *L 2.008e+00 *S 0.000e+00 0.000e+00 

*R_NET i_X_DATA\[31\] 1.453e-02
*DRIVER i_X_DATA\[31\]
*CELL fd4qd1_hd
*C2_R1_C1 7.265e-03 1.275e-02 7.265e-03 
*LOADS
*RC r_x_data_reg_31_:D 1.853e-04
*END

*R_NET i_X_DATA\[30\] 1.453e-02
*DRIVER i_X_DATA\[30\]
*CELL fd4qd1_hd
*C2_R1_C1 7.265e-03 1.275e-02 7.265e-03 
*LOADS
*RC r_x_data_reg_30_:D 1.853e-04
*END

*R_NET i_X_DATA\[29\] 1.453e-02
*DRIVER i_X_DATA\[29\]
*CELL fd4qd1_hd
*C2_R1_C1 7.265e-03 1.275e-02 7.265e-03 
*LOADS
*RC r_x_data_reg_29_:D 1.853e-04
*END

*R_NET i_X_DATA\[28\] 1.453e-02
*DRIVER i_X_DATA\[28\]
*CELL fd4qd1_hd
*C2_R1_C1 7.265e-03 1.275e-02 7.265e-03 
*LOADS
*RC r_x_data_reg_28_:D 1.853e-04
*END

*R_NET i_X_DATA\[27\] 1.453e-02
*DRIVER i_X_DATA\[27\]
*CELL fd4qd1_hd
*C2_R1_C1 7.265e-03 1.275e-02 7.265e-03 
*LOADS
*RC r_x_data_reg_27_:D 1.853e-04
*END

*R_NET i_X_DATA\[26\] 1.453e-02
*DRIVER i_X_DATA\[26\]
*CELL fd4qd1_hd
*C2_R1_C1 7.265e-03 1.275e-02 7.265e-03 
*LOADS
*RC r_x_data_reg_26_:D 1.853e-04
*END

*R_NET i_X_DATA\[25\] 1.453e-02
*DRIVER i_X_DATA\[25\]
*CELL fd4qd1_hd
*C2_R1_C1 7.265e-03 1.275e-02 7.265e-03 
*LOADS
*RC r_x_data_reg_25_:D 1.853e-04
*END

*R_NET i_X_DATA\[24\] 1.453e-02
*DRIVER i_X_DATA\[24\]
*CELL fd4qd1_hd
*C2_R1_C1 7.265e-03 1.275e-02 7.265e-03 
*LOADS
*RC r_x_data_reg_24_:D 1.853e-04
*END

*R_NET i_X_DATA\[23\] 1.453e-02
*DRIVER i_X_DATA\[23\]
*CELL fd4qd1_hd
*C2_R1_C1 7.265e-03 1.275e-02 7.265e-03 
*LOADS
*RC r_x_data_reg_23_:D 1.853e-04
*END

*R_NET i_X_DATA\[22\] 1.453e-02
*DRIVER i_X_DATA\[22\]
*CELL fd4qd1_hd
*C2_R1_C1 7.265e-03 1.275e-02 7.265e-03 
*LOADS
*RC r_x_data_reg_22_:D 1.853e-04
*END

*R_NET i_X_DATA\[21\] 1.453e-02
*DRIVER i_X_DATA\[21\]
*CELL fd4qd1_hd
*C2_R1_C1 7.265e-03 1.275e-02 7.265e-03 
*LOADS
*RC r_x_data_reg_21_:D 1.853e-04
*END

*R_NET i_X_DATA\[20\] 1.453e-02
*DRIVER i_X_DATA\[20\]
*CELL fd4qd1_hd
*C2_R1_C1 7.265e-03 1.275e-02 7.265e-03 
*LOADS
*RC r_x_data_reg_20_:D 1.853e-04
*END

*R_NET i_X_DATA\[19\] 1.453e-02
*DRIVER i_X_DATA\[19\]
*CELL fd4qd1_hd
*C2_R1_C1 7.265e-03 1.275e-02 7.265e-03 
*LOADS
*RC r_x_data_reg_19_:D 1.853e-04
*END

*R_NET i_X_DATA\[18\] 1.453e-02
*DRIVER i_X_DATA\[18\]
*CELL fd4qd1_hd
*C2_R1_C1 7.265e-03 1.275e-02 7.265e-03 
*LOADS
*RC r_x_data_reg_18_:D 1.853e-04
*END

*R_NET i_X_DATA\[17\] 1.453e-02
*DRIVER i_X_DATA\[17\]
*CELL fd4qd1_hd
*C2_R1_C1 7.265e-03 1.275e-02 7.265e-03 
*LOADS
*RC r_x_data_reg_17_:D 1.853e-04
*END

*R_NET i_X_DATA\[16\] 1.453e-02
*DRIVER i_X_DATA\[16\]
*CELL fd4qd1_hd
*C2_R1_C1 7.265e-03 1.275e-02 7.265e-03 
*LOADS
*RC r_x_data_reg_16_:D 1.853e-04
*END

*R_NET i_X_DATA\[15\] 1.453e-02
*DRIVER i_X_DATA\[15\]
*CELL fd4qd1_hd
*C2_R1_C1 7.265e-03 1.275e-02 7.265e-03 
*LOADS
*RC r_x_data_reg_15_:D 1.853e-04
*END

*R_NET i_X_DATA\[14\] 1.453e-02
*DRIVER i_X_DATA\[14\]
*CELL fd4qd1_hd
*C2_R1_C1 7.265e-03 1.275e-02 7.265e-03 
*LOADS
*RC r_x_data_reg_14_:D 1.853e-04
*END

*R_NET i_X_DATA\[13\] 1.453e-02
*DRIVER i_X_DATA\[13\]
*CELL fd4qd1_hd
*C2_R1_C1 7.265e-03 1.275e-02 7.265e-03 
*LOADS
*RC r_x_data_reg_13_:D 1.853e-04
*END

*R_NET i_X_DATA\[12\] 1.453e-02
*DRIVER i_X_DATA\[12\]
*CELL fd4qd1_hd
*C2_R1_C1 7.265e-03 1.275e-02 7.265e-03 
*LOADS
*RC r_x_data_reg_12_:D 1.853e-04
*END

*R_NET i_X_DATA\[11\] 1.453e-02
*DRIVER i_X_DATA\[11\]
*CELL fd4qd1_hd
*C2_R1_C1 7.265e-03 1.275e-02 7.265e-03 
*LOADS
*RC r_x_data_reg_11_:D 1.853e-04
*END

*R_NET i_X_DATA\[10\] 1.453e-02
*DRIVER i_X_DATA\[10\]
*CELL fd4qd1_hd
*C2_R1_C1 7.265e-03 1.275e-02 7.265e-03 
*LOADS
*RC r_x_data_reg_10_:D 1.853e-04
*END

*R_NET i_X_DATA\[9\] 1.453e-02
*DRIVER i_X_DATA\[9\]
*CELL fd4qd1_hd
*C2_R1_C1 7.265e-03 1.275e-02 7.265e-03 
*LOADS
*RC r_x_data_reg_9_:D 1.853e-04
*END

*R_NET i_X_DATA\[8\] 1.453e-02
*DRIVER i_X_DATA\[8\]
*CELL fd4qd1_hd
*C2_R1_C1 7.265e-03 1.275e-02 7.265e-03 
*LOADS
*RC r_x_data_reg_8_:D 1.853e-04
*END

*R_NET i_X_DATA\[7\] 1.453e-02
*DRIVER i_X_DATA\[7\]
*CELL fd4qd1_hd
*C2_R1_C1 7.265e-03 1.275e-02 7.265e-03 
*LOADS
*RC r_x_data_reg_7_:D 1.853e-04
*END

*R_NET i_X_DATA\[6\] 1.453e-02
*DRIVER i_X_DATA\[6\]
*CELL fd4qd1_hd
*C2_R1_C1 7.265e-03 1.275e-02 7.265e-03 
*LOADS
*RC r_x_data_reg_6_:D 1.853e-04
*END

*R_NET i_X_DATA\[5\] 1.453e-02
*DRIVER i_X_DATA\[5\]
*CELL fd4qd1_hd
*C2_R1_C1 7.265e-03 1.275e-02 7.265e-03 
*LOADS
*RC r_x_data_reg_5_:D 1.853e-04
*END

*R_NET i_X_DATA\[4\] 1.453e-02
*DRIVER i_X_DATA\[4\]
*CELL fd4qd1_hd
*C2_R1_C1 7.265e-03 1.275e-02 7.265e-03 
*LOADS
*RC r_x_data_reg_4_:D 1.853e-04
*END

*R_NET i_X_DATA\[3\] 1.453e-02
*DRIVER i_X_DATA\[3\]
*CELL fd4qd1_hd
*C2_R1_C1 7.265e-03 1.275e-02 7.265e-03 
*LOADS
*RC r_x_data_reg_3_:D 1.853e-04
*END

*R_NET i_X_DATA\[2\] 1.453e-02
*DRIVER i_X_DATA\[2\]
*CELL fd4qd1_hd
*C2_R1_C1 7.265e-03 1.275e-02 7.265e-03 
*LOADS
*RC r_x_data_reg_2_:D 1.853e-04
*END

*R_NET i_X_DATA\[1\] 1.453e-02
*DRIVER i_X_DATA\[1\]
*CELL fd4qd1_hd
*C2_R1_C1 7.265e-03 1.275e-02 7.265e-03 
*LOADS
*RC r_x_data_reg_1_:D 1.853e-04
*END

*R_NET i_X_DATA\[0\] 1.453e-02
*DRIVER i_X_DATA\[0\]
*CELL fd4qd1_hd
*C2_R1_C1 7.265e-03 1.275e-02 7.265e-03 
*LOADS
*RC r_x_data_reg_0_:D 1.853e-04
*END

*R_NET o_Y_DATA\[31\] 3.184e-02
*DRIVER o_Y_DATA_reg_31_:Q
*CELL fd2qd1_hd
*C2_R1_C1 1.592e-02 1.469e-02 1.592e-02 
*LOADS
*RC r_y_data_reg_31_:D 4.677e-04
*RC U453:B 4.677e-04
*RC o_Y_DATA\[31\] 4.677e-04
*END

*R_NET o_Y_DATA\[30\] 3.184e-02
*DRIVER o_Y_DATA_reg_30_:Q
*CELL fd2qd1_hd
*C2_R1_C1 1.592e-02 1.469e-02 1.592e-02 
*LOADS
*RC r_y_data_reg_30_:D 4.677e-04
*RC U450:B 4.677e-04
*RC o_Y_DATA\[30\] 4.677e-04
*END

*R_NET o_Y_DATA\[29\] 3.184e-02
*DRIVER o_Y_DATA_reg_29_:Q
*CELL fd2qd1_hd
*C2_R1_C1 1.592e-02 1.469e-02 1.592e-02 
*LOADS
*RC r_y_data_reg_29_:D 4.677e-04
*RC U447:B 4.677e-04
*RC o_Y_DATA\[29\] 4.677e-04
*END

*R_NET o_Y_DATA\[28\] 3.184e-02
*DRIVER o_Y_DATA_reg_28_:Q
*CELL fd2qd1_hd
*C2_R1_C1 1.592e-02 1.469e-02 1.592e-02 
*LOADS
*RC r_y_data_reg_28_:D 4.677e-04
*RC U444:B 4.677e-04
*RC o_Y_DATA\[28\] 4.677e-04
*END

*R_NET o_Y_DATA\[27\] 3.184e-02
*DRIVER o_Y_DATA_reg_27_:Q
*CELL fd2qd1_hd
*C2_R1_C1 1.592e-02 1.469e-02 1.592e-02 
*LOADS
*RC r_y_data_reg_27_:D 4.677e-04
*RC U441:B 4.677e-04
*RC o_Y_DATA\[27\] 4.677e-04
*END

*R_NET o_Y_DATA\[26\] 3.184e-02
*DRIVER o_Y_DATA_reg_26_:Q
*CELL fd2qd1_hd
*C2_R1_C1 1.592e-02 1.469e-02 1.592e-02 
*LOADS
*RC r_y_data_reg_26_:D 4.677e-04
*RC U438:B 4.677e-04
*RC o_Y_DATA\[26\] 4.677e-04
*END

*R_NET o_Y_DATA\[25\] 3.184e-02
*DRIVER o_Y_DATA_reg_25_:Q
*CELL fd2qd1_hd
*C2_R1_C1 1.592e-02 1.469e-02 1.592e-02 
*LOADS
*RC r_y_data_reg_25_:D 4.677e-04
*RC U435:B 4.677e-04
*RC o_Y_DATA\[25\] 4.677e-04
*END

*R_NET o_Y_DATA\[24\] 3.184e-02
*DRIVER o_Y_DATA_reg_24_:Q
*CELL fd2qd1_hd
*C2_R1_C1 1.592e-02 1.469e-02 1.592e-02 
*LOADS
*RC r_y_data_reg_24_:D 4.677e-04
*RC U432:B 4.677e-04
*RC o_Y_DATA\[24\] 4.677e-04
*END

*R_NET o_Y_DATA\[23\] 3.184e-02
*DRIVER o_Y_DATA_reg_23_:Q
*CELL fd2qd1_hd
*C2_R1_C1 1.592e-02 1.469e-02 1.592e-02 
*LOADS
*RC r_y_data_reg_23_:D 4.677e-04
*RC U429:B 4.677e-04
*RC o_Y_DATA\[23\] 4.677e-04
*END

*R_NET o_Y_DATA\[22\] 3.184e-02
*DRIVER o_Y_DATA_reg_22_:Q
*CELL fd2qd1_hd
*C2_R1_C1 1.592e-02 1.469e-02 1.592e-02 
*LOADS
*RC r_y_data_reg_22_:D 4.677e-04
*RC U426:B 4.677e-04
*RC o_Y_DATA\[22\] 4.677e-04
*END

*R_NET o_Y_DATA\[21\] 3.184e-02
*DRIVER o_Y_DATA_reg_21_:Q
*CELL fd2qd1_hd
*C2_R1_C1 1.592e-02 1.469e-02 1.592e-02 
*LOADS
*RC r_y_data_reg_21_:D 4.677e-04
*RC U423:B 4.677e-04
*RC o_Y_DATA\[21\] 4.677e-04
*END

*R_NET o_Y_DATA\[20\] 3.184e-02
*DRIVER o_Y_DATA_reg_20_:Q
*CELL fd2qd1_hd
*C2_R1_C1 1.592e-02 1.469e-02 1.592e-02 
*LOADS
*RC r_y_data_reg_20_:D 4.677e-04
*RC U420:B 4.677e-04
*RC o_Y_DATA\[20\] 4.677e-04
*END

*R_NET o_Y_DATA\[19\] 3.184e-02
*DRIVER o_Y_DATA_reg_19_:Q
*CELL fd2qd1_hd
*C2_R1_C1 1.592e-02 1.469e-02 1.592e-02 
*LOADS
*RC r_y_data_reg_19_:D 4.677e-04
*RC U416:B 4.677e-04
*RC o_Y_DATA\[19\] 4.677e-04
*END

*R_NET o_Y_DATA\[18\] 3.184e-02
*DRIVER o_Y_DATA_reg_18_:Q
*CELL fd2qd1_hd
*C2_R1_C1 1.592e-02 1.469e-02 1.592e-02 
*LOADS
*RC r_y_data_reg_18_:D 4.677e-04
*RC U413:B 4.677e-04
*RC o_Y_DATA\[18\] 4.677e-04
*END

*R_NET o_Y_DATA\[17\] 3.184e-02
*DRIVER o_Y_DATA_reg_17_:Q
*CELL fd2qd1_hd
*C2_R1_C1 1.592e-02 1.469e-02 1.592e-02 
*LOADS
*RC r_y_data_reg_17_:D 4.677e-04
*RC U410:B 4.677e-04
*RC o_Y_DATA\[17\] 4.677e-04
*END

*R_NET o_Y_DATA\[16\] 3.184e-02
*DRIVER o_Y_DATA_reg_16_:Q
*CELL fd2qd1_hd
*C2_R1_C1 1.592e-02 1.469e-02 1.592e-02 
*LOADS
*RC r_y_data_reg_16_:D 4.677e-04
*RC U407:B 4.677e-04
*RC o_Y_DATA\[16\] 4.677e-04
*END

*R_NET o_Y_DATA\[15\] 3.184e-02
*DRIVER o_Y_DATA_reg_15_:Q
*CELL fd2qd1_hd
*C2_R1_C1 1.592e-02 1.469e-02 1.592e-02 
*LOADS
*RC r_y_data_reg_15_:D 4.677e-04
*RC U404:B 4.677e-04
*RC o_Y_DATA\[15\] 4.677e-04
*END

*R_NET o_Y_DATA\[14\] 3.184e-02
*DRIVER o_Y_DATA_reg_14_:Q
*CELL fd2qd1_hd
*C2_R1_C1 1.592e-02 1.469e-02 1.592e-02 
*LOADS
*RC r_y_data_reg_14_:D 4.677e-04
*RC U401:B 4.677e-04
*RC o_Y_DATA\[14\] 4.677e-04
*END

*R_NET o_Y_DATA\[13\] 3.184e-02
*DRIVER o_Y_DATA_reg_13_:Q
*CELL fd2qd1_hd
*C2_R1_C1 1.592e-02 1.469e-02 1.592e-02 
*LOADS
*RC r_y_data_reg_13_:D 4.677e-04
*RC U398:B 4.677e-04
*RC o_Y_DATA\[13\] 4.677e-04
*END

*R_NET o_Y_DATA\[12\] 3.184e-02
*DRIVER o_Y_DATA_reg_12_:Q
*CELL fd2qd1_hd
*C2_R1_C1 1.592e-02 1.469e-02 1.592e-02 
*LOADS
*RC r_y_data_reg_12_:D 4.677e-04
*RC U395:B 4.677e-04
*RC o_Y_DATA\[12\] 4.677e-04
*END

*R_NET o_Y_DATA\[11\] 3.184e-02
*DRIVER o_Y_DATA_reg_11_:Q
*CELL fd2qd1_hd
*C2_R1_C1 1.592e-02 1.469e-02 1.592e-02 
*LOADS
*RC r_y_data_reg_11_:D 4.677e-04
*RC U392:B 4.677e-04
*RC o_Y_DATA\[11\] 4.677e-04
*END

*R_NET o_Y_DATA\[10\] 3.184e-02
*DRIVER o_Y_DATA_reg_10_:Q
*CELL fd2qd1_hd
*C2_R1_C1 1.592e-02 1.469e-02 1.592e-02 
*LOADS
*RC r_y_data_reg_10_:D 4.677e-04
*RC U389:B 4.677e-04
*RC o_Y_DATA\[10\] 4.677e-04
*END

*R_NET o_Y_DATA\[9\] 3.184e-02
*DRIVER o_Y_DATA_reg_9_:Q
*CELL fd2qd1_hd
*C2_R1_C1 1.592e-02 1.469e-02 1.592e-02 
*LOADS
*RC r_y_data_reg_9_:D 4.677e-04
*RC U386:B 4.677e-04
*RC o_Y_DATA\[9\] 4.677e-04
*END

*R_NET o_Y_DATA\[8\] 3.184e-02
*DRIVER o_Y_DATA_reg_8_:Q
*CELL fd2qd1_hd
*C2_R1_C1 1.592e-02 1.469e-02 1.592e-02 
*LOADS
*RC r_y_data_reg_8_:D 4.677e-04
*RC U383:B 4.677e-04
*RC o_Y_DATA\[8\] 4.677e-04
*END

*R_NET o_Y_DATA\[7\] 3.184e-02
*DRIVER o_Y_DATA_reg_7_:Q
*CELL fd2qd1_hd
*C2_R1_C1 1.592e-02 1.469e-02 1.592e-02 
*LOADS
*RC r_y_data_reg_7_:D 4.677e-04
*RC U380:B 4.677e-04
*RC o_Y_DATA\[7\] 4.677e-04
*END

*R_NET o_Y_DATA\[6\] 3.184e-02
*DRIVER o_Y_DATA_reg_6_:Q
*CELL fd2qd1_hd
*C2_R1_C1 1.592e-02 1.469e-02 1.592e-02 
*LOADS
*RC r_y_data_reg_6_:D 4.677e-04
*RC U377:B 4.677e-04
*RC o_Y_DATA\[6\] 4.677e-04
*END

*R_NET o_Y_DATA\[5\] 3.184e-02
*DRIVER o_Y_DATA_reg_5_:Q
*CELL fd2qd1_hd
*C2_R1_C1 1.592e-02 1.469e-02 1.592e-02 
*LOADS
*RC r_y_data_reg_5_:D 4.677e-04
*RC U374:B 4.677e-04
*RC o_Y_DATA\[5\] 4.677e-04
*END

*R_NET o_Y_DATA\[4\] 3.184e-02
*DRIVER o_Y_DATA_reg_4_:Q
*CELL fd2qd1_hd
*C2_R1_C1 1.592e-02 1.469e-02 1.592e-02 
*LOADS
*RC r_y_data_reg_4_:D 4.677e-04
*RC U371:B 4.677e-04
*RC o_Y_DATA\[4\] 4.677e-04
*END

*R_NET o_Y_DATA\[3\] 3.184e-02
*DRIVER o_Y_DATA_reg_3_:Q
*CELL fd2qd1_hd
*C2_R1_C1 1.592e-02 1.469e-02 1.592e-02 
*LOADS
*RC r_y_data_reg_3_:D 4.677e-04
*RC U368:B 4.677e-04
*RC o_Y_DATA\[3\] 4.677e-04
*END

*R_NET o_Y_DATA\[2\] 3.184e-02
*DRIVER o_Y_DATA_reg_2_:Q
*CELL fd2qd1_hd
*C2_R1_C1 1.592e-02 1.469e-02 1.592e-02 
*LOADS
*RC r_y_data_reg_2_:D 4.677e-04
*RC U365:B 4.677e-04
*RC o_Y_DATA\[2\] 4.677e-04
*END

*R_NET o_Y_DATA\[1\] 3.184e-02
*DRIVER o_Y_DATA_reg_1_:Q
*CELL fd2qd1_hd
*C2_R1_C1 1.592e-02 1.469e-02 1.592e-02 
*LOADS
*RC r_y_data_reg_1_:D 4.677e-04
*RC U362:B 4.677e-04
*RC o_Y_DATA\[1\] 4.677e-04
*END

*R_NET o_Y_DATA\[0\] 3.184e-02
*DRIVER o_Y_DATA_reg_0_:Q
*CELL fd2qd1_hd
*C2_R1_C1 1.592e-02 1.469e-02 1.592e-02 
*LOADS
*RC r_y_data_reg_0_:D 4.677e-04
*RC U359:B 4.677e-04
*RC o_Y_DATA\[0\] 4.677e-04
*END

*R_NET i_X_DATA_VALID 1.444e-02
*DRIVER i_X_DATA_VALID
*CELL fd4qd1_hd
*C2_R1_C1 7.220e-03 1.275e-02 7.220e-03 
*LOADS
*RC U1695:A 1.841e-04
*END

*R_NET i_Y_ACK 1.504e-02
*DRIVER i_Y_ACK
*CELL fd4qd1_hd
*C2_R1_C1 7.520e-03 1.275e-02 7.520e-03 
*LOADS
*RC U1709:B 1.918e-04
*END

*R_NET i_CLK 1.020e+03
*DRIVER i_CLK
*CELL NULL
*C2_R1_C1 5.101e+02 0.000e+00 5.101e+02 
*LOADS
*RC clk_gate_r_mult_AB_STB_reg/latch:CK 0.000e+00
*RC clk_gate_o_Y_DATA_reg_31_/latch:CK 0.000e+00
*RC clk_gate_r_add_B_reg_30_/latch:CK 0.000e+00
*RC clk_gate_r_mult_2_B_reg_31_/latch:CK 0.000e+00
*RC clk_gate_r_y_data_reg_63_/latch:CK 0.000e+00
*RC add/DP_OP_139_128_9073/clk_gate_clk_r_REG122_S1/latch:CK 0.000e+00
*RC add/DP_OP_142_125_4840/clk_gate_clk_r_REG245_S1/latch:CK 0.000e+00
*RC mult_2/clk_gate_clk_r_REG53_S7/latch:CK 0.000e+00
*RC mult_2/clk_gate_clk_r_REG62_S9/latch:CK 0.000e+00
*RC mult_2/clk_gate_clk_r_REG116_S9/latch:CK 0.000e+00
*RC mult_2/clk_gate_clk_r_REG29_S4/latch:CK 0.000e+00
*RC mult_2/clk_gate_clk_r_REG167_S8/latch:CK 0.000e+00
*RC mult_2/clk_gate_clk_r_REG181_S8/latch:CK 0.000e+00
*RC mult_2/clk_gate_clk_r_REG153_S9/latch:CK 0.000e+00
*RC mult_2/clk_gate_clk_r_REG13_S3/latch:CK 0.000e+00
*RC mult_2/clk_gate_clk_r_REG4_S4/latch:CK 0.000e+00
*RC mult_2/clk_gate_clk_r_REG0_S1/latch:CK 0.000e+00
*RC mult_1/clk_gate_clk_r_REG53_S7/latch:CK 0.000e+00
*RC mult_1/clk_gate_clk_r_REG62_S9/latch:CK 0.000e+00
*RC mult_1/clk_gate_clk_r_REG116_S9/latch:CK 0.000e+00
*RC mult_1/clk_gate_clk_r_REG29_S4/latch:CK 0.000e+00
*RC mult_1/clk_gate_clk_r_REG167_S8/latch:CK 0.000e+00
*RC mult_1/clk_gate_clk_r_REG181_S8/latch:CK 0.000e+00
*RC mult_1/clk_gate_clk_r_REG153_S9/latch:CK 0.000e+00
*RC mult_1/clk_gate_clk_r_REG13_S3/latch:CK 0.000e+00
*RC mult_1/clk_gate_clk_r_REG4_S4/latch:CK 0.000e+00
*RC mult_1/clk_gate_clk_r_REG0_S1/latch:CK 0.000e+00
*RC add/clk_gate_clk_r_REG277_S1/latch:CK 0.000e+00
*RC add/clk_gate_clk_r_REG209_S4/latch:CK 0.000e+00
*RC add/clk_gate_clk_r_REG173_S4/latch:CK 0.000e+00
*RC add/clk_gate_clk_r_REG135_S4/latch:CK 0.000e+00
*RC add/clk_gate_clk_r_REG13_S12/latch:CK 0.000e+00
*RC add/clk_gate_clk_r_REG123_S2/latch:CK 0.000e+00
*RC add/clk_gate_clk_r_REG125_S4/latch:CK 0.000e+00
*RC add/clk_gate_clk_r_REG4_S3/latch:CK 0.000e+00
*RC add/clk_gate_clk_r_REG17_S14/latch:CK 0.000e+00
*RC add/clk_gate_clk_r_REG3_S4/latch:CK 0.000e+00
*RC add/clk_gate_clk_r_REG0_S1/latch:CK 0.000e+00
*RC add/gte_x_3/clk_r_REG212_S4:CK 0.000e+00
*RC mult_2/clk_r_REG108_S9:CK 0.000e+00
*RC mult_1/clk_r_REG108_S9:CK 0.000e+00
*RC o_Y_DATA_VALID_reg:CK 0.000e+00
*RC r_pstate_reg_0_:CK 0.000e+00
*RC r_pstate_reg_1_:CK 0.000e+00
*END

*R_NET o_X_DATA_READY 3.886e-02
*DRIVER o_X_DATA_READY_reg:Q
*CELL fd1qd1_hd
*C2_R1_C1 1.943e-02 1.924e-02 1.943e-02 
*LOADS
*RC U1695:B 7.477e-04
*RC U1288:D0 7.477e-04
*RC o_X_DATA_READY 7.477e-04
*END

*R_NET o_Y_DATA_VALID 3.932e-02
*DRIVER o_Y_DATA_VALID_reg:Q
*CELL fd2qd1_hd
*C2_R1_C1 1.966e-02 1.924e-02 1.966e-02 
*LOADS
*RC U1709:A 7.565e-04
*RC U1283:D0 7.565e-04
*RC o_Y_DATA_VALID 7.565e-04
*END

*R_NET r_add_AB_STB 2.106e-02
*DRIVER r_add_AB_STB_reg:Q
*CELL fd2qd1_hd
*C2_R1_C1 1.053e-02 1.366e-02 1.053e-02 
*LOADS
*RC U1118:D0 2.877e-04
*RC add/U718:A 2.877e-04
*RC add/U386:B 2.877e-04
*END

*R_NET w_add_AB_ACK 2.125e-02
*DRIVER add/clk_r_REG276_S1:Q
*CELL fd1eqd1_hd
*C2_R1_C1 1.063e-02 1.366e-02 1.063e-02 
*LOADS
*RC add/U718:B 2.903e-04
*RC add/U386:C 2.903e-04
*RC U837:B 2.903e-04
*END

*R_NET w_add_Z_STB 4.044e-02
*DRIVER add/clk_r_REG277_S1:Q
*CELL fd1eqd1_hd
*C2_R1_C1 2.022e-02 1.956e-02 2.022e-02 
*LOADS
*RC add/U731:B 7.910e-04
*RC add/U716:B 7.910e-04
*RC U1701:A 7.910e-04
*RC U206:A 7.910e-04
*RC U195:C 7.910e-04
*END

*R_NET r_add_Z_ACK 2.105e-02
*DRIVER r_add_Z_ACK_reg:Q
*CELL fd2qd1_hd
*C2_R1_C1 1.053e-02 1.366e-02 1.053e-02 
*LOADS
*RC U1121:D0 2.875e-04
*RC add/U731:A 2.875e-04
*RC add/U716:A 2.875e-04
*END

*R_NET w_mult_1_AB_ACK 1.969e-02
*DRIVER mult_1/clk_r_REG265_S1:Q
*CELL fd1eqd1_hd
*C2_R1_C1 9.845e-03 1.366e-02 9.845e-03 
*LOADS
*RC mult_1/U19:C 2.690e-04
*RC mult_1/U374:B 2.690e-04
*RC U838:A 2.690e-04
*END

*R_NET w_mult_2_AB_ACK 1.984e-02
*DRIVER mult_2/clk_r_REG265_S1:Q
*CELL fd1eqd1_hd
*C2_R1_C1 9.920e-03 1.366e-02 9.920e-03 
*LOADS
*RC mult_2/U19:C 2.710e-04
*RC mult_2/U374:B 2.710e-04
*RC U838:B 2.710e-04
*END

*R_NET w_mult_AB_ACK 5.710e-03
*DRIVER U838:Y
*CELL ad2d1_hd
*C2_R1_C1 2.855e-03 7.940e-03 2.855e-03 
*LOADS
*RC U837:A 4.534e-05
*END

*R_NET w_mult_1_Z_STB 1.969e-02
*DRIVER mult_1/clk_r_REG266_S1:Q
*CELL fd1eqd1_hd
*C2_R1_C1 9.845e-03 1.366e-02 9.845e-03 
*LOADS
*RC mult_1/U385:B 2.690e-04
*RC mult_1/U372:B 2.690e-04
*RC U833:A 2.690e-04
*END

*R_NET w_mult_2_Z_STB 1.984e-02
*DRIVER mult_2/clk_r_REG266_S1:Q
*CELL fd1eqd1_hd
*C2_R1_C1 9.920e-03 1.366e-02 9.920e-03 
*LOADS
*RC mult_2/U385:B 2.710e-04
*RC mult_2/U372:B 2.710e-04
*RC U833:B 2.710e-04
*END

*R_NET w_mult_Z_STB 5.700e-03
*DRIVER U833:Y
*CELL ad2d1_hd
*C2_R1_C1 2.850e-03 7.940e-03 2.850e-03 
*LOADS
*RC U1701:B 4.526e-05
*END

*R_NET r_mult_AB_STB 3.890e-02
*DRIVER r_mult_AB_STB_reg:Q
*CELL fd2qd1_hd
*C2_R1_C1 1.945e-02 1.956e-02 1.945e-02 
*LOADS
*RC mult_2/U19:B 7.609e-04
*RC mult_2/U374:A 7.609e-04
*RC U1119:D0 7.609e-04
*RC mult_1/U19:B 7.609e-04
*RC mult_1/U374:A 7.609e-04
*END

*R_NET r_mult_Z_ACK 3.878e-02
*DRIVER r_mult_Z_ACK_reg:Q
*CELL fd2qd1_hd
*C2_R1_C1 1.939e-02 1.956e-02 1.939e-02 
*LOADS
*RC mult_2/U385:A 7.585e-04
*RC mult_2/U372:A 7.585e-04
*RC U1016:D0 7.585e-04
*RC mult_1/U385:A 7.585e-04
*RC mult_1/U372:A 7.585e-04
*END

*R_NET N27 1.686e-02
*DRIVER U242:Y
*CELL ivd1_hd
*C2_R1_C1 8.430e-03 1.157e-02 8.430e-03 
*LOADS
*RC U340:A 1.951e-04
*RC U839:A 1.951e-04
*END

*R_NET N28 1.405e-02
*DRIVER U241:Y
*CELL ivd1_hd
*C2_R1_C1 7.025e-03 1.157e-02 7.025e-03 
*LOADS
*RC U1699:B 1.626e-04
*RC U839:B 1.626e-04
*END

*R_NET N29 1.934e-02
*DRIVER U839:Y
*CELL ad2d1_hd
*C2_R1_C1 9.670e-03 1.366e-02 9.670e-03 
*LOADS
*RC U1710:A 2.642e-04
*RC U1289:A 2.642e-04
*RC U1284:A 2.642e-04
*END

*R_NET N32 3.737e-01
*DRIVER U340:Y
*CELL or2d6_hd
*C2_R1_C1 1.869e-01 7.883e-02 1.869e-01 
*LOADS
*RC U200:AN 2.946e-02
*RC U201:B 2.946e-02
*RC U346:A 2.946e-02
*RC U355:A 2.946e-02
*RC U357:A 2.946e-02
*RC U360:A 2.946e-02
*RC U363:A 2.946e-02
*RC U366:A 2.946e-02
*RC U369:A 2.946e-02
*RC U372:A 2.946e-02
*RC U375:A 2.946e-02
*RC U378:A 2.946e-02
*RC U381:A 2.946e-02
*RC U384:A 2.946e-02
*RC U387:A 2.946e-02
*RC U390:A 2.946e-02
*RC U393:A 2.946e-02
*RC U396:A 2.946e-02
*RC U399:A 2.946e-02
*RC U402:A 2.946e-02
*RC U405:A 2.946e-02
*RC U408:A 2.946e-02
*RC U411:A 2.946e-02
*RC U414:A 2.946e-02
*RC U417:A 2.946e-02
*RC U421:A 2.946e-02
*RC U424:A 2.946e-02
*RC U427:A 2.946e-02
*RC U430:A 2.946e-02
*RC U433:A 2.946e-02
*RC U436:A 2.946e-02
*RC U439:A 2.946e-02
*RC U442:A 2.946e-02
*RC U445:A 2.946e-02
*RC U448:A 2.946e-02
*RC U451:A 2.946e-02
*RC U454:A 2.946e-02
*RC U458:A 2.946e-02
*RC U461:A 2.946e-02
*RC U463:A 2.946e-02
*RC U466:A 2.946e-02
*RC U469:A 2.946e-02
*RC U471:A 2.946e-02
*RC U474:A 2.946e-02
*RC U477:A 2.946e-02
*RC U479:A 2.946e-02
*RC U482:A 2.946e-02
*RC U485:A 2.946e-02
*RC U487:A 2.946e-02
*RC U490:A 2.946e-02
*RC U493:A 2.946e-02
*RC U495:A 2.946e-02
*RC U498:A 2.946e-02
*RC U501:A 2.946e-02
*RC U503:A 2.946e-02
*RC U506:A 2.946e-02
*RC U509:A 2.946e-02
*RC U511:A 2.946e-02
*RC U514:A 2.946e-02
*RC U517:A 2.946e-02
*RC U519:A 2.946e-02
*RC U522:A 2.946e-02
*RC U525:A 2.946e-02
*RC U527:A 2.946e-02
*RC U530:A 2.946e-02
*RC U533:A 2.946e-02
*RC U535:A 2.946e-02
*RC U541:A 2.946e-02
*RC U543:B 2.946e-02
*RC U545:B 2.946e-02
*RC U1291:A 2.946e-02
*RC U830:C 2.946e-02
*END

*R_NET N33 1.750e-01
*DRIVER U1291:Y
*CELL ivd3_hd
*C2_R1_C1 8.749e-02 5.128e-02 8.749e-02 
*LOADS
*RC U245:A 8.973e-03
*RC U247:A 8.973e-03
*RC U248:A 8.973e-03
*RC U250:A 8.973e-03
*RC U298:A 8.973e-03
*RC U299:A 8.973e-03
*RC U301:A 8.973e-03
*RC U302:A 8.973e-03
*RC U304:A 8.973e-03
*RC U305:A 8.973e-03
*RC U307:A 8.973e-03
*RC U308:A 8.973e-03
*RC U310:A 8.973e-03
*RC U311:A 8.973e-03
*RC U313:A 8.973e-03
*RC U314:A 8.973e-03
*RC U316:A 8.973e-03
*RC U317:A 8.973e-03
*RC U319:A 8.973e-03
*RC U320:A 8.973e-03
*RC U322:A 8.973e-03
*RC U323:A 8.973e-03
*RC U325:A 8.973e-03
*RC U326:A 8.973e-03
*RC U328:A 8.973e-03
*RC U329:A 8.973e-03
*RC U331:A 8.973e-03
*RC U332:A 8.973e-03
*RC U334:A 8.973e-03
*RC U335:A 8.973e-03
*RC U337:A 8.973e-03
*RC U338:A 8.973e-03
*RC U339:A 8.973e-03
*RC U1300:A 8.973e-03
*RC U1121:D1 8.973e-03
*RC U1016:D1 8.973e-03
*RC U835:A 8.973e-03
*RC U826:A 8.973e-03
*END

*R_NET N35 1.492e-02
*DRIVER U1695:Y
*CELL ad2d1_hd
*C2_R1_C1 7.460e-03 1.157e-02 7.460e-03 
*LOADS
*RC U354:A 1.726e-04
*RC clk_gate_r_y_data_reg_63_/latch:EN 1.726e-04
*END

*R_NET N39 3.858e-02
*DRIVER U349:Y
*CELL ivd1_hd
*C2_R1_C1 1.929e-02 1.824e-02 1.929e-02 
*LOADS
*RC U344:A 7.037e-04
*RC U343:A 7.037e-04
*RC U348:A 7.037e-04
*RC U1708:A 7.037e-04
*END

*R_NET N40 3.259e-02
*DRIVER U1297:Y
*CELL ivd1_hd
*C2_R1_C1 1.630e-02 1.824e-02 1.630e-02 
*LOADS
*RC U344:B 5.944e-04
*RC U343:B 5.944e-04
*RC U1693:B 5.944e-04
*RC U1691:B 5.944e-04
*END

*R_NET N41 2.152e-01
*DRIVER U344:Y
*CELL clkad2d3_hd
*C2_R1_C1 1.076e-01 5.340e-02 1.076e-01 
*LOADS
*RC U200:B 1.149e-02
*RC U534:B 1.149e-02
*RC U529:B 1.149e-02
*RC U523:B 1.149e-02
*RC U518:B 1.149e-02
*RC U513:B 1.149e-02
*RC U507:B 1.149e-02
*RC U499:B 1.149e-02
*RC U494:B 1.149e-02
*RC U489:B 1.149e-02
*RC U483:B 1.149e-02
*RC U478:B 1.149e-02
*RC U473:B 1.149e-02
*RC U467:B 1.149e-02
*RC U462:B 1.149e-02
*RC U457:B 1.149e-02
*RC U453:C 1.149e-02
*RC U447:C 1.149e-02
*RC U441:C 1.149e-02
*RC U435:C 1.149e-02
*RC U429:C 1.149e-02
*RC U423:C 1.149e-02
*RC U416:C 1.149e-02
*RC U413:C 1.149e-02
*RC U410:C 1.149e-02
*RC U407:C 1.149e-02
*RC U401:C 1.149e-02
*RC U398:C 1.149e-02
*RC U395:C 1.149e-02
*RC U389:C 1.149e-02
*RC U386:C 1.149e-02
*RC U383:C 1.149e-02
*RC U380:C 1.149e-02
*RC U374:C 1.149e-02
*RC U371:C 1.149e-02
*RC U365:C 1.149e-02
*RC U362:C 1.149e-02
*RC U542:B 1.149e-02
*RC U193:A 1.149e-02
*RC U1120:A 1.149e-02
*END

*R_NET N46 5.800e-03
*DRIVER U1296:Y
*CELL ad2d1_hd
*C2_R1_C1 2.900e-03 7.940e-03 2.900e-03 
*LOADS
*RC U820:C 4.605e-05
*END

*R_NET N111 5.430e-03
*DRIVER U1120:Y
*CELL or2d1_hd
*C2_R1_C1 2.715e-03 7.940e-03 2.715e-03 
*LOADS
*RC U240:AN 4.311e-05
*END

*R_NET N435 1.587e-01
*DRIVER U343:Y
*CELL ad2d2_hd
*C2_R1_C1 7.936e-02 4.162e-02 7.936e-02 
*LOADS
*RC U584:B 6.607e-03
*RC U356:B 6.607e-03
*RC U359:C 6.607e-03
*RC U368:C 6.607e-03
*RC U377:C 6.607e-03
*RC U392:C 6.607e-03
*RC U404:C 6.607e-03
*RC U420:C 6.607e-03
*RC U426:C 6.607e-03
*RC U432:C 6.607e-03
*RC U438:C 6.607e-03
*RC U444:C 6.607e-03
*RC U450:C 6.607e-03
*RC U459:B 6.607e-03
*RC U465:B 6.607e-03
*RC U470:B 6.607e-03
*RC U475:B 6.607e-03
*RC U481:B 6.607e-03
*RC U486:B 6.607e-03
*RC U491:B 6.607e-03
*RC U497:B 6.607e-03
*RC U502:B 6.607e-03
*RC U505:B 6.607e-03
*RC U510:B 6.607e-03
*RC U515:B 6.607e-03
*RC U521:B 6.607e-03
*RC U526:B 6.607e-03
*RC U531:B 6.607e-03
*RC U537:B 6.607e-03
*END

*R_NET N440 1.826e-02
*DRIVER U1703:Y
*CELL ad2d1_hd
*C2_R1_C1 9.130e-03 1.157e-02 9.130e-03 
*LOADS
*RC U1300:B 2.113e-04
*RC U195:B 2.113e-04
*END

*R_NET N443 5.430e-03
*DRIVER U1295:Y
*CELL xo2d1_hd
*C2_R1_C1 2.715e-03 7.940e-03 2.715e-03 
*LOADS
*RC U590:AN 4.311e-05
*END

*R_NET N561 2.118e-02
*DRIVER U598:Y
*CELL ad2d1_hd
*C2_R1_C1 1.059e-02 1.366e-02 1.059e-02 
*LOADS
*RC U1287:C 2.893e-04
*RC U1283:D1 2.893e-04
*RC U188:D 2.893e-04
*END

*R_NET N564 5.600e-03
*DRIVER U591:Y
*CELL nr2d1_hd
*C2_R1_C1 2.800e-03 7.940e-03 2.800e-03 
*LOADS
*RC U1294:D1 4.446e-05
*END

*R_NET N566 5.600e-03
*DRIVER U590:Y
*CELL nr2bd1_hd
*C2_R1_C1 2.800e-03 7.940e-03 2.800e-03 
*LOADS
*RC U1285:D1 4.446e-05
*END

*R_NET N766 5.600e-03
*DRIVER U240:Y
*CELL nr2bd1_hd
*C2_R1_C1 2.800e-03 7.940e-03 2.800e-03 
*LOADS
*RC U1119:D1 4.446e-05
*END

*R_NET N768 5.190e-03
*DRIVER U238:Y
*CELL oa22d1_hd
*C2_R1_C1 2.595e-03 7.940e-03 2.595e-03 
*LOADS
*RC o_Y_DATA_reg_0_:D 4.121e-05
*END

*R_NET N769 5.190e-03
*DRIVER U237:Y
*CELL oa22d1_hd
*C2_R1_C1 2.595e-03 7.940e-03 2.595e-03 
*LOADS
*RC o_Y_DATA_reg_1_:D 4.121e-05
*END

*R_NET N770 5.190e-03
*DRIVER U236:Y
*CELL oa22d1_hd
*C2_R1_C1 2.595e-03 7.940e-03 2.595e-03 
*LOADS
*RC o_Y_DATA_reg_2_:D 4.121e-05
*END

*R_NET N771 5.190e-03
*DRIVER U235:Y
*CELL oa22d1_hd
*C2_R1_C1 2.595e-03 7.940e-03 2.595e-03 
*LOADS
*RC o_Y_DATA_reg_3_:D 4.121e-05
*END

*R_NET N772 5.190e-03
*DRIVER U234:Y
*CELL oa22d1_hd
*C2_R1_C1 2.595e-03 7.940e-03 2.595e-03 
*LOADS
*RC o_Y_DATA_reg_4_:D 4.121e-05
*END

*R_NET N773 5.190e-03
*DRIVER U233:Y
*CELL oa22d1_hd
*C2_R1_C1 2.595e-03 7.940e-03 2.595e-03 
*LOADS
*RC o_Y_DATA_reg_5_:D 4.121e-05
*END

*R_NET N774 5.190e-03
*DRIVER U232:Y
*CELL oa22d1_hd
*C2_R1_C1 2.595e-03 7.940e-03 2.595e-03 
*LOADS
*RC o_Y_DATA_reg_6_:D 4.121e-05
*END

*R_NET N775 5.190e-03
*DRIVER U231:Y
*CELL oa22d1_hd
*C2_R1_C1 2.595e-03 7.940e-03 2.595e-03 
*LOADS
*RC o_Y_DATA_reg_7_:D 4.121e-05
*END

*R_NET N776 5.190e-03
*DRIVER U230:Y
*CELL oa22d1_hd
*C2_R1_C1 2.595e-03 7.940e-03 2.595e-03 
*LOADS
*RC o_Y_DATA_reg_8_:D 4.121e-05
*END

*R_NET N777 5.190e-03
*DRIVER U229:Y
*CELL oa22d1_hd
*C2_R1_C1 2.595e-03 7.940e-03 2.595e-03 
*LOADS
*RC o_Y_DATA_reg_9_:D 4.121e-05
*END

*R_NET N778 5.190e-03
*DRIVER U228:Y
*CELL oa22d1_hd
*C2_R1_C1 2.595e-03 7.940e-03 2.595e-03 
*LOADS
*RC o_Y_DATA_reg_10_:D 4.121e-05
*END

*R_NET N779 5.190e-03
*DRIVER U227:Y
*CELL oa22d1_hd
*C2_R1_C1 2.595e-03 7.940e-03 2.595e-03 
*LOADS
*RC o_Y_DATA_reg_11_:D 4.121e-05
*END

*R_NET N780 5.190e-03
*DRIVER U226:Y
*CELL oa22d1_hd
*C2_R1_C1 2.595e-03 7.940e-03 2.595e-03 
*LOADS
*RC o_Y_DATA_reg_12_:D 4.121e-05
*END

*R_NET N781 5.190e-03
*DRIVER U225:Y
*CELL oa22d1_hd