*SPEF "IEEE 1481-1999"
*DESIGN "iir_notch"
*DATE "Mon May  4 16:15:21 2020"
*VENDOR "SYNOPSYS INC"
*PROGRAM "Synopsys Design Compiler cmos"
*VERSION "F-2011.09-SP5-3"
*DESIGN_FLOW "SYNTHESIS"
*DIVIDER /
*DELIMITER :
*BUS_DELIMITER []
*T_UNIT 1.0 NS
*C_UNIT 1.0 PF
*R_UNIT 1.0 KOHM
*L_UNIT 1.0 HENRY

*PORTS

i_X_DATA\[31\] I *L 0.000e+00 *S 0.000e+00 0.000e+00 
i_X_DATA\[30\] I *L 0.000e+00 *S 0.000e+00 0.000e+00 
i_X_DATA\[29\] I *L 0.000e+00 *S 0.000e+00 0.000e+00 
i_X_DATA\[28\] I *L 0.000e+00 *S 0.000e+00 0.000e+00 
i_X_DATA\[27\] I *L 0.000e+00 *S 0.000e+00 0.000e+00 
i_X_DATA\[26\] I *L 0.000e+00 *S 0.000e+00 0.000e+00 
i_X_DATA\[25\] I *L 0.000e+00 *S 0.000e+00 0.000e+00 
i_X_DATA\[24\] I *L 0.000e+00 *S 0.000e+00 0.000e+00 
i_X_DATA\[23\] I *L 0.000e+00 *S 0.000e+00 0.000e+00 
i_X_DATA\[22\] I *L 0.000e+00 *S 0.000e+00 0.000e+00 
i_X_DATA\[21\] I *L 0.000e+00 *S 0.000e+00 0.000e+00 
i_X_DATA\[20\] I *L 0.000e+00 *S 0.000e+00 0.000e+00 
i_X_DATA\[19\] I *L 0.000e+00 *S 0.000e+00 0.000e+00 
i_X_DATA\[18\] I *L 0.000e+00 *S 0.000e+00 0.000e+00 
i_X_DATA\[17\] I *L 0.000e+00 *S 0.000e+00 0.000e+00 
i_X_DATA\[16\] I *L 0.000e+00 *S 0.000e+00 0.000e+00 
i_X_DATA\[15\] I *L 0.000e+00 *S 0.000e+00 0.000e+00 
i_X_DATA\[14\] I *L 0.000e+00 *S 0.000e+00 0.000e+00 
i_X_DATA\[13\] I *L 0.000e+00 *S 0.000e+00 0.000e+00 
i_X_DATA\[12\] I *L 0.000e+00 *S 0.000e+00 0.000e+00 
i_X_DATA\[11\] I *L 0.000e+00 *S 0.000e+00 0.000e+00 
i_X_DATA\[10\] I *L 0.000e+00 *S 0.000e+00 0.000e+00 
i_X_DATA\[9\] I *L 0.000e+00 *S 0.000e+00 0.000e+00 
i_X_DATA\[8\] I *L 0.000e+00 *S 0.000e+00 0.000e+00 
i_X_DATA\[7\] I *L 0.000e+00 *S 0.000e+00 0.000e+00 
i_X_DATA\[6\] I *L 0.000e+00 *S 0.000e+00 0.000e+00 
i_X_DATA\[5\] I *L 0.000e+00 *S 0.000e+00 0.000e+00 
i_X_DATA\[4\] I *L 0.000e+00 *S 0.000e+00 0.000e+00 
i_X_DATA\[3\] I *L 0.000e+00 *S 0.000e+00 0.000e+00 
i_X_DATA\[2\] I *L 0.000e+00 *S 0.000e+00 0.000e+00 
i_X_DATA\[1\] I *L 0.000e+00 *S 0.000e+00 0.000e+00 
i_X_DATA\[0\] I *L 0.000e+00 *S 0.000e+00 0.000e+00 
i_X_DATA_VALID I *L 0.000e+00 *S 0.000e+00 0.000e+00 
o_X_DATA_READY O *L 0.000e+00 *S 1.235e-01 9.915e-02 
o_Y_DATA\[31\] O *L 0.000e+00 *S 1.598e-01 1.998e-01 
o_Y_DATA\[30\] O *L 0.000e+00 *S 1.598e-01 1.998e-01 
o_Y_DATA\[29\] O *L 0.000e+00 *S 1.598e-01 1.998e-01 
o_Y_DATA\[28\] O *L 0.000e+00 *S 1.598e-01 1.998e-01 
o_Y_DATA\[27\] O *L 0.000e+00 *S 1.598e-01 1.998e-01 
o_Y_DATA\[26\] O *L 0.000e+00 *S 1.598e-01 1.998e-01 
o_Y_DATA\[25\] O *L 0.000e+00 *S 1.598e-01 1.998e-01 
o_Y_DATA\[24\] O *L 0.000e+00 *S 1.598e-01 1.998e-01 
o_Y_DATA\[23\] O *L 0.000e+00 *S 1.598e-01 1.998e-01 
o_Y_DATA\[22\] O *L 0.000e+00 *S 1.598e-01 1.998e-01 
o_Y_DATA\[21\] O *L 0.000e+00 *S 1.598e-01 1.998e-01 
o_Y_DATA\[20\] O *L 0.000e+00 *S 1.598e-01 1.998e-01 
o_Y_DATA\[19\] O *L 0.000e+00 *S 1.598e-01 1.998e-01 
o_Y_DATA\[18\] O *L 0.000e+00 *S 1.598e-01 1.998e-01 
o_Y_DATA\[17\] O *L 0.000e+00 *S 1.598e-01 1.998e-01 
o_Y_DATA\[16\] O *L 0.000e+00 *S 1.598e-01 1.998e-01 
o_Y_DATA\[15\] O *L 0.000e+00 *S 1.598e-01 1.998e-01 
o_Y_DATA\[14\] O *L 0.000e+00 *S 1.598e-01 1.998e-01 
o_Y_DATA\[13\] O *L 0.000e+00 *S 1.598e-01 1.998e-01 
o_Y_DATA\[12\] O *L 0.000e+00 *S 1.598e-01 1.998e-01 
o_Y_DATA\[11\] O *L 0.000e+00 *S 1.598e-01 1.998e-01 
o_Y_DATA\[10\] O *L 0.000e+00 *S 1.598e-01 1.998e-01 
o_Y_DATA\[9\] O *L 0.000e+00 *S 1.598e-01 1.998e-01 
o_Y_DATA\[8\] O *L 0.000e+00 *S 1.598e-01 1.998e-01 
o_Y_DATA\[7\] O *L 0.000e+00 *S 1.598e-01 1.998e-01 
o_Y_DATA\[6\] O *L 0.000e+00 *S 1.598e-01 1.998e-01 
o_Y_DATA\[5\] O *L 0.000e+00 *S 1.598e-01 1.998e-01 
o_Y_DATA\[4\] O *L 0.000e+00 *S 1.598e-01 1.998e-01 
o_Y_DATA\[3\] O *L 0.000e+00 *S 1.598e-01 1.998e-01 
o_Y_DATA\[2\] O *L 0.000e+00 *S 1.598e-01 1.998e-01 
o_Y_DATA\[1\] O *L 0.000e+00 *S 1.598e-01 1.998e-01 
o_Y_DATA\[0\] O *L 0.000e+00 *S 1.598e-01 1.998e-01 
o_Y_DATA_VALID O *L 0.000e+00 *S 1.748e-01 2.151e-01 
i_Y_ACK I *L 0.000e+00 *S 0.000e+00 0.000e+00 
i_CLK I *L 0.000e+00 *S 0.000e+00 0.000e+00 
i_RSTN I *L 0.000e+00 *S 0.000e+00 0.000e+00 

*R_NET i_X_DATA\[31\] 5.700e-03
*DRIVER i_X_DATA\[31\]
*CELL NULL
*C2_R1_C1 2.850e-03 7.940e-03 2.850e-03 
*LOADS
*RC U863:B 4.526e-05
*END

*R_NET i_X_DATA\[30\] 5.700e-03
*DRIVER i_X_DATA\[30\]
*CELL NULL
*C2_R1_C1 2.850e-03 7.940e-03 2.850e-03 
*LOADS
*RC U864:B 4.526e-05
*END

*R_NET i_X_DATA\[29\] 5.700e-03
*DRIVER i_X_DATA\[29\]
*CELL NULL
*C2_R1_C1 2.850e-03 7.940e-03 2.850e-03 
*LOADS
*RC U865:B 4.526e-05
*END

*R_NET i_X_DATA\[28\] 5.700e-03
*DRIVER i_X_DATA\[28\]
*CELL NULL
*C2_R1_C1 2.850e-03 7.940e-03 2.850e-03 
*LOADS
*RC U866:B 4.526e-05
*END

*R_NET i_X_DATA\[27\] 5.700e-03
*DRIVER i_X_DATA\[27\]
*CELL NULL
*C2_R1_C1 2.850e-03 7.940e-03 2.850e-03 
*LOADS
*RC U867:B 4.526e-05
*END

*R_NET i_X_DATA\[26\] 5.700e-03
*DRIVER i_X_DATA\[26\]
*CELL NULL
*C2_R1_C1 2.850e-03 7.940e-03 2.850e-03 
*LOADS
*RC U868:B 4.526e-05
*END

*R_NET i_X_DATA\[25\] 5.700e-03
*DRIVER i_X_DATA\[25\]
*CELL NULL
*C2_R1_C1 2.850e-03 7.940e-03 2.850e-03 
*LOADS
*RC U869:B 4.526e-05
*END

*R_NET i_X_DATA\[24\] 5.700e-03
*DRIVER i_X_DATA\[24\]
*CELL NULL
*C2_R1_C1 2.850e-03 7.940e-03 2.850e-03 
*LOADS
*RC U870:B 4.526e-05
*END

*R_NET i_X_DATA\[23\] 5.700e-03
*DRIVER i_X_DATA\[23\]
*CELL NULL
*C2_R1_C1 2.850e-03 7.940e-03 2.850e-03 
*LOADS
*RC U871:B 4.526e-05
*END

*R_NET i_X_DATA\[22\] 5.700e-03
*DRIVER i_X_DATA\[22\]
*CELL NULL
*C2_R1_C1 2.850e-03 7.940e-03 2.850e-03 
*LOADS
*RC U872:B 4.526e-05
*END

*R_NET i_X_DATA\[21\] 5.700e-03
*DRIVER i_X_DATA\[21\]
*CELL NULL
*C2_R1_C1 2.850e-03 7.940e-03 2.850e-03 
*LOADS
*RC U873:B 4.526e-05
*END

*R_NET i_X_DATA\[20\] 5.700e-03
*DRIVER i_X_DATA\[20\]
*CELL NULL
*C2_R1_C1 2.850e-03 7.940e-03 2.850e-03 
*LOADS
*RC U874:B 4.526e-05
*END

*R_NET i_X_DATA\[19\] 5.700e-03
*DRIVER i_X_DATA\[19\]
*CELL NULL
*C2_R1_C1 2.850e-03 7.940e-03 2.850e-03 
*LOADS
*RC U875:B 4.526e-05
*END

*R_NET i_X_DATA\[18\] 5.700e-03
*DRIVER i_X_DATA\[18\]
*CELL NULL
*C2_R1_C1 2.850e-03 7.940e-03 2.850e-03 
*LOADS
*RC U876:B 4.526e-05
*END

*R_NET i_X_DATA\[17\] 5.700e-03
*DRIVER i_X_DATA\[17\]
*CELL NULL
*C2_R1_C1 2.850e-03 7.940e-03 2.850e-03 
*LOADS
*RC U877:B 4.526e-05
*END

*R_NET i_X_DATA\[16\] 5.700e-03
*DRIVER i_X_DATA\[16\]
*CELL NULL
*C2_R1_C1 2.850e-03 7.940e-03 2.850e-03 
*LOADS
*RC U878:B 4.526e-05
*END

*R_NET i_X_DATA\[15\] 5.700e-03
*DRIVER i_X_DATA\[15\]
*CELL NULL
*C2_R1_C1 2.850e-03 7.940e-03 2.850e-03 
*LOADS
*RC U879:B 4.526e-05
*END

*R_NET i_X_DATA\[14\] 5.700e-03
*DRIVER i_X_DATA\[14\]
*CELL NULL
*C2_R1_C1 2.850e-03 7.940e-03 2.850e-03 
*LOADS
*RC U880:B 4.526e-05
*END

*R_NET i_X_DATA\[13\] 5.700e-03
*DRIVER i_X_DATA\[13\]
*CELL NULL
*C2_R1_C1 2.850e-03 7.940e-03 2.850e-03 
*LOADS
*RC U881:B 4.526e-05
*END

*R_NET i_X_DATA\[12\] 5.700e-03
*DRIVER i_X_DATA\[12\]
*CELL NULL
*C2_R1_C1 2.850e-03 7.940e-03 2.850e-03 
*LOADS
*RC U882:B 4.526e-05
*END

*R_NET i_X_DATA\[11\] 5.700e-03
*DRIVER i_X_DATA\[11\]
*CELL NULL
*C2_R1_C1 2.850e-03 7.940e-03 2.850e-03 
*LOADS
*RC U883:B 4.526e-05
*END

*R_NET i_X_DATA\[10\] 5.700e-03
*DRIVER i_X_DATA\[10\]
*CELL NULL
*C2_R1_C1 2.850e-03 7.940e-03 2.850e-03 
*LOADS
*RC U884:B 4.526e-05
*END

*R_NET i_X_DATA\[9\] 5.700e-03
*DRIVER i_X_DATA\[9\]
*CELL NULL
*C2_R1_C1 2.850e-03 7.940e-03 2.850e-03 
*LOADS
*RC U885:B 4.526e-05
*END

*R_NET i_X_DATA\[8\] 5.700e-03
*DRIVER i_X_DATA\[8\]
*CELL NULL
*C2_R1_C1 2.850e-03 7.940e-03 2.850e-03 
*LOADS
*RC U886:B 4.526e-05
*END

*R_NET i_X_DATA\[7\] 5.700e-03
*DRIVER i_X_DATA\[7\]
*CELL NULL
*C2_R1_C1 2.850e-03 7.940e-03 2.850e-03 
*LOADS
*RC U887:B 4.526e-05
*END

*R_NET i_X_DATA\[6\] 5.700e-03
*DRIVER i_X_DATA\[6\]
*CELL NULL
*C2_R1_C1 2.850e-03 7.940e-03 2.850e-03 
*LOADS
*RC U888:B 4.526e-05
*END

*R_NET i_X_DATA\[5\] 5.700e-03
*DRIVER i_X_DATA\[5\]
*CELL NULL
*C2_R1_C1 2.850e-03 7.940e-03 2.850e-03 
*LOADS
*RC U889:B 4.526e-05
*END

*R_NET i_X_DATA\[4\] 5.700e-03
*DRIVER i_X_DATA\[4\]
*CELL NULL
*C2_R1_C1 2.850e-03 7.940e-03 2.850e-03 
*LOADS
*RC U1191:B 4.526e-05
*END

*R_NET i_X_DATA\[3\] 5.700e-03
*DRIVER i_X_DATA\[3\]
*CELL NULL
*C2_R1_C1 2.850e-03 7.940e-03 2.850e-03 
*LOADS
*RC U1190:B 4.526e-05
*END

*R_NET i_X_DATA\[2\] 5.700e-03
*DRIVER i_X_DATA\[2\]
*CELL NULL
*C2_R1_C1 2.850e-03 7.940e-03 2.850e-03 
*LOADS
*RC U1187:B 4.526e-05
*END

*R_NET i_X_DATA\[1\] 5.700e-03
*DRIVER i_X_DATA\[1\]
*CELL NULL
*C2_R1_C1 2.850e-03 7.940e-03 2.850e-03 
*LOADS
*RC U1189:B 4.526e-05
*END

*R_NET i_X_DATA\[0\] 5.700e-03
*DRIVER i_X_DATA\[0\]
*CELL NULL
*C2_R1_C1 2.850e-03 7.940e-03 2.850e-03 
*LOADS
*RC U1188:B 4.526e-05
*END

*R_NET i_X_DATA_VALID 7.120e-03
*DRIVER i_X_DATA_VALID
*CELL NULL
*C2_R1_C1 3.560e-03 7.940e-03 3.560e-03 
*LOADS
*RC U856:B 5.653e-05
*END

*R_NET o_X_DATA_READY 1.345e-02
*DRIVER o_X_DATA_READY_reg:Q
*CELL fd1eqd1_hd
*C2_R1_C1 6.725e-03 1.157e-02 6.725e-03 
*LOADS
*RC U856:A 1.556e-04
*RC o_X_DATA_READY 1.556e-04
*END

*R_NET o_Y_DATA\[31\] 1.768e-02
*DRIVER o_Y_DATA_reg_31_:Q
*CELL fd2qd1_hd
*C2_R1_C1 8.840e-03 1.366e-02 8.840e-03 
*LOADS
*RC U1031:B 2.415e-04
*RC U1512:A 2.415e-04
*RC o_Y_DATA\[31\] 2.415e-04
*END

*R_NET o_Y_DATA\[30\] 1.768e-02
*DRIVER o_Y_DATA_reg_30_:Q
*CELL fd2qd1_hd
*C2_R1_C1 8.840e-03 1.366e-02 8.840e-03 
*LOADS
*RC U1143:B 2.415e-04
*RC U1516:A 2.415e-04
*RC o_Y_DATA\[30\] 2.415e-04
*END

*R_NET o_Y_DATA\[29\] 1.768e-02
*DRIVER o_Y_DATA_reg_29_:Q
*CELL fd2qd1_hd
*C2_R1_C1 8.840e-03 1.366e-02 8.840e-03 
*LOADS
*RC U1147:B 2.415e-04
*RC U1518:A 2.415e-04
*RC o_Y_DATA\[29\] 2.415e-04
*END

*R_NET o_Y_DATA\[28\] 1.768e-02
*DRIVER o_Y_DATA_reg_28_:Q
*CELL fd2qd1_hd
*C2_R1_C1 8.840e-03 1.366e-02 8.840e-03 
*LOADS
*RC U1150:B 2.415e-04
*RC U1520:A 2.415e-04
*RC o_Y_DATA\[28\] 2.415e-04
*END

*R_NET o_Y_DATA\[27\] 1.768e-02
*DRIVER o_Y_DATA_reg_27_:Q
*CELL fd2qd1_hd
*C2_R1_C1 8.840e-03 1.366e-02 8.840e-03 
*LOADS
*RC U1152:B 2.415e-04
*RC U1522:A 2.415e-04
*RC o_Y_DATA\[27\] 2.415e-04
*END

*R_NET o_Y_DATA\[26\] 1.768e-02
*DRIVER o_Y_DATA_reg_26_:Q
*CELL fd2qd1_hd
*C2_R1_C1 8.840e-03 1.366e-02 8.840e-03 
*LOADS
*RC U1167:B 2.415e-04
*RC U1524:A 2.415e-04
*RC o_Y_DATA\[26\] 2.415e-04
*END

*R_NET o_Y_DATA\[25\] 1.768e-02
*DRIVER o_Y_DATA_reg_25_:Q
*CELL fd2qd1_hd
*C2_R1_C1 8.840e-03 1.366e-02 8.840e-03 
*LOADS
*RC U1181:B 2.415e-04
*RC U1526:A 2.415e-04
*RC o_Y_DATA\[25\] 2.415e-04
*END

*R_NET o_Y_DATA\[24\] 1.768e-02
*DRIVER o_Y_DATA_reg_24_:Q
*CELL fd2qd1_hd
*C2_R1_C1 8.840e-03 1.366e-02 8.840e-03 
*LOADS
*RC U1169:B 2.415e-04
*RC U1528:A 2.415e-04
*RC o_Y_DATA\[24\] 2.415e-04
*END

*R_NET o_Y_DATA\[23\] 1.768e-02
*DRIVER o_Y_DATA_reg_23_:Q
*CELL fd2qd1_hd
*C2_R1_C1 8.840e-03 1.366e-02 8.840e-03 
*LOADS
*RC U1174:B 2.415e-04
*RC U1530:A 2.415e-04
*RC o_Y_DATA\[23\] 2.415e-04
*END

*R_NET o_Y_DATA\[22\] 1.768e-02
*DRIVER o_Y_DATA_reg_22_:Q
*CELL fd2qd1_hd
*C2_R1_C1 8.840e-03 1.366e-02 8.840e-03 
*LOADS
*RC U1179:B 2.415e-04
*RC U1532:A 2.415e-04
*RC o_Y_DATA\[22\] 2.415e-04
*END

*R_NET o_Y_DATA\[21\] 1.768e-02
*DRIVER o_Y_DATA_reg_21_:Q
*CELL fd2qd1_hd
*C2_R1_C1 8.840e-03 1.366e-02 8.840e-03 
*LOADS
*RC U1162:B 2.415e-04
*RC U1534:A 2.415e-04
*RC o_Y_DATA\[21\] 2.415e-04
*END

*R_NET o_Y_DATA\[20\] 1.768e-02
*DRIVER o_Y_DATA_reg_20_:Q
*CELL fd2qd1_hd
*C2_R1_C1 8.840e-03 1.366e-02 8.840e-03 
*LOADS
*RC U952:B 2.415e-04
*RC U1536:A 2.415e-04
*RC o_Y_DATA\[20\] 2.415e-04
*END

*R_NET o_Y_DATA\[19\] 1.768e-02
*DRIVER o_Y_DATA_reg_19_:Q
*CELL fd2qd1_hd
*C2_R1_C1 8.840e-03 1.366e-02 8.840e-03 
*LOADS
*RC U1161:B 2.415e-04
*RC U1538:A 2.415e-04
*RC o_Y_DATA\[19\] 2.415e-04
*END

*R_NET o_Y_DATA\[18\] 1.768e-02
*DRIVER o_Y_DATA_reg_18_:Q
*CELL fd2qd1_hd
*C2_R1_C1 8.840e-03 1.366e-02 8.840e-03 
*LOADS
*RC U953:B 2.415e-04
*RC U1540:A 2.415e-04
*RC o_Y_DATA\[18\] 2.415e-04
*END

*R_NET o_Y_DATA\[17\] 1.768e-02
*DRIVER o_Y_DATA_reg_17_:Q
*CELL fd2qd1_hd
*C2_R1_C1 8.840e-03 1.366e-02 8.840e-03 
*LOADS
*RC U1166:B 2.415e-04
*RC U1542:A 2.415e-04
*RC o_Y_DATA\[17\] 2.415e-04
*END

*R_NET o_Y_DATA\[16\] 1.768e-02
*DRIVER o_Y_DATA_reg_16_:Q
*CELL fd2qd1_hd
*C2_R1_C1 8.840e-03 1.366e-02 8.840e-03 
*LOADS
*RC U1156:B 2.415e-04
*RC U1544:A 2.415e-04
*RC o_Y_DATA\[16\] 2.415e-04
*END

*R_NET o_Y_DATA\[15\] 1.768e-02
*DRIVER o_Y_DATA_reg_15_:Q
*CELL fd2qd1_hd
*C2_R1_C1 8.840e-03 1.366e-02 8.840e-03 
*LOADS
*RC U1182:B 2.415e-04
*RC U1546:A 2.415e-04
*RC o_Y_DATA\[15\] 2.415e-04
*END

*R_NET o_Y_DATA\[14\] 1.768e-02
*DRIVER o_Y_DATA_reg_14_:Q
*CELL fd2qd1_hd
*C2_R1_C1 8.840e-03 1.366e-02 8.840e-03 
*LOADS
*RC U1178:B 2.415e-04
*RC U1548:A 2.415e-04
*RC o_Y_DATA\[14\] 2.415e-04
*END

*R_NET o_Y_DATA\[13\] 1.768e-02
*DRIVER o_Y_DATA_reg_13_:Q
*CELL fd2qd1_hd
*C2_R1_C1 8.840e-03 1.366e-02 8.840e-03 
*LOADS
*RC U954:B 2.415e-04
*RC U1550:A 2.415e-04
*RC o_Y_DATA\[13\] 2.415e-04
*END

*R_NET o_Y_DATA\[12\] 1.768e-02
*DRIVER o_Y_DATA_reg_12_:Q
*CELL fd2qd1_hd
*C2_R1_C1 8.840e-03 1.366e-02 8.840e-03 
*LOADS
*RC U955:B 2.415e-04
*RC U1552:A 2.415e-04
*RC o_Y_DATA\[12\] 2.415e-04
*END

*R_NET o_Y_DATA\[11\] 1.768e-02
*DRIVER o_Y_DATA_reg_11_:Q
*CELL fd2qd1_hd
*C2_R1_C1 8.840e-03 1.366e-02 8.840e-03 
*LOADS
*RC U1155:B 2.415e-04
*RC U1554:A 2.415e-04
*RC o_Y_DATA\[11\] 2.415e-04
*END

*R_NET o_Y_DATA\[10\] 1.768e-02
*DRIVER o_Y_DATA_reg_10_:Q
*CELL fd2qd1_hd
*C2_R1_C1 8.840e-03 1.366e-02 8.840e-03 
*LOADS
*RC U1149:B 2.415e-04
*RC U1556:A 2.415e-04
*RC o_Y_DATA\[10\] 2.415e-04
*END

*R_NET o_Y_DATA\[9\] 1.768e-02
*DRIVER o_Y_DATA_reg_9_:Q
*CELL fd2qd1_hd
*C2_R1_C1 8.840e-03 1.366e-02 8.840e-03 
*LOADS
*RC U956:B 2.415e-04
*RC U1558:A 2.415e-04
*RC o_Y_DATA\[9\] 2.415e-04
*END

*R_NET o_Y_DATA\[8\] 1.768e-02
*DRIVER o_Y_DATA_reg_8_:Q
*CELL fd2qd1_hd
*C2_R1_C1 8.840e-03 1.366e-02 8.840e-03 
*LOADS
*RC U1138:B 2.415e-04
*RC U1560:A 2.415e-04
*RC o_Y_DATA\[8\] 2.415e-04
*END

*R_NET o_Y_DATA\[7\] 1.768e-02
*DRIVER o_Y_DATA_reg_7_:Q
*CELL fd2qd1_hd
*C2_R1_C1 8.840e-03 1.366e-02 8.840e-03 
*LOADS
*RC U1134:B 2.415e-04
*RC U1562:A 2.415e-04
*RC o_Y_DATA\[7\] 2.415e-04
*END

*R_NET o_Y_DATA\[6\] 1.768e-02
*DRIVER o_Y_DATA_reg_6_:Q
*CELL fd2qd1_hd
*C2_R1_C1 8.840e-03 1.366e-02 8.840e-03 
*LOADS
*RC U1129:B 2.415e-04
*RC U1564:A 2.415e-04
*RC o_Y_DATA\[6\] 2.415e-04
*END

*R_NET o_Y_DATA\[5\] 1.768e-02
*DRIVER o_Y_DATA_reg_5_:Q
*CELL fd2qd1_hd
*C2_R1_C1 8.840e-03 1.366e-02 8.840e-03 
*LOADS
*RC U917:B 2.415e-04
*RC U1566:A 2.415e-04
*RC o_Y_DATA\[5\] 2.415e-04
*END

*R_NET o_Y_DATA\[4\] 1.768e-02
*DRIVER o_Y_DATA_reg_4_:Q
*CELL fd2qd1_hd
*C2_R1_C1 8.840e-03 1.366e-02 8.840e-03 
*LOADS
*RC U1122:B 2.415e-04
*RC U1568:A 2.415e-04
*RC o_Y_DATA\[4\] 2.415e-04
*END

*R_NET o_Y_DATA\[3\] 1.768e-02
*DRIVER o_Y_DATA_reg_3_:Q
*CELL fd2qd1_hd
*C2_R1_C1 8.840e-03 1.366e-02 8.840e-03 
*LOADS
*RC U1115:B 2.415e-04
*RC U1570:A 2.415e-04
*RC o_Y_DATA\[3\] 2.415e-04
*END

*R_NET o_Y_DATA\[2\] 1.768e-02
*DRIVER o_Y_DATA_reg_2_:Q
*CELL fd2qd1_hd
*C2_R1_C1 8.840e-03 1.366e-02 8.840e-03 
*LOADS
*RC U929:B 2.415e-04
*RC U1572:A 2.415e-04
*RC o_Y_DATA\[2\] 2.415e-04
*END

*R_NET o_Y_DATA\[1\] 1.768e-02
*DRIVER o_Y_DATA_reg_1_:Q
*CELL fd2qd1_hd
*C2_R1_C1 8.840e-03 1.366e-02 8.840e-03 
*LOADS
*RC U1107:B 2.415e-04
*RC U1574:A 2.415e-04
*RC o_Y_DATA\[1\] 2.415e-04
*END

*R_NET o_Y_DATA\[0\] 1.768e-02
*DRIVER o_Y_DATA_reg_0_:Q
*CELL fd2qd1_hd
*C2_R1_C1 8.840e-03 1.366e-02 8.840e-03 
*LOADS
*RC U918:B 2.415e-04
*RC U1576:A 2.415e-04
*RC o_Y_DATA\[0\] 2.415e-04
*END

*R_NET o_Y_DATA_VALID 1.948e-02
*DRIVER o_Y_DATA_VALID_reg:Q
*CELL fd2qd1_hd
*C2_R1_C1 9.740e-03 1.366e-02 9.740e-03 
*LOADS
*RC U1488:B 2.661e-04
*RC U1645:C 2.661e-04
*RC o_Y_DATA_VALID 2.661e-04
*END

*R_NET i_Y_ACK 6.690e-03
*DRIVER i_Y_ACK
*CELL NULL
*C2_R1_C1 3.345e-03 7.940e-03 3.345e-03 
*LOADS
*RC U1488:A 5.312e-05
*END

*R_NET w_add_1_AB_ACK 1.978e-02
*DRIVER add_1/o_AB_ACK_reg:Q
*CELL fd1qd1_hd
*C2_R1_C1 9.890e-03 1.366e-02 9.890e-03 
*LOADS
*RC add_1/U620:C 2.702e-04
*RC add_1/U1410:B 2.702e-04
*RC U1277:A 2.702e-04
*END

*R_NET w_add_2_AB_ACK 1.978e-02
*DRIVER add_2/o_AB_ACK_reg:Q
*CELL fd1qd1_hd
*C2_R1_C1 9.890e-03 1.366e-02 9.890e-03 
*LOADS
*RC add_2/U621:C 2.702e-04
*RC add_2/U1410:B 2.702e-04
*RC U1277:B 2.702e-04
*END

*R_NET w_add_1_Z_STB 4.750e-02
*DRIVER add_1/o_Z_STB_reg:Q
*CELL fd1qd1_hd
*C2_R1_C1 2.375e-02 2.097e-02 2.375e-02 
*LOADS
*RC add_1/U1412:B 9.961e-04
*RC add_1/U1432:B 9.961e-04
*RC U844:B 9.961e-04
*RC U852:B 9.961e-04
*RC U958:A 9.961e-04
*RC U1498:C 9.961e-04
*END

*R_NET w_add_2_Z_STB 3.900e-02
*DRIVER add_2/o_Z_STB_reg:Q
*CELL fd1qd1_hd
*C2_R1_C1 1.950e-02 1.956e-02 1.950e-02 
*LOADS
*RC add_2/U1412:B 7.628e-04
*RC add_2/U1432:B 7.628e-04
*RC U852:A 7.628e-04
*RC U958:B 7.628e-04
*RC U1498:B 7.628e-04
*END

*R_NET r_add_1_A\[31\] 1.400e-02
*DRIVER r_add_1_A_reg_31_:Q
*CELL fd2qd1_hd
*C2_R1_C1 7.000e-03 1.157e-02 7.000e-03 
*LOADS
*RC U1514:C 1.620e-04
*RC add_1/a_reg_31_:D 1.620e-04
*END

*R_NET r_add_1_A\[30\] 1.400e-02
*DRIVER r_add_1_A_reg_30_:Q
*CELL fd2qd1_hd
*C2_R1_C1 7.000e-03 1.157e-02 7.000e-03 
*LOADS
*RC U1642:C 1.620e-04
*RC add_1/a_reg_30_:D 1.620e-04
*END

*R_NET r_add_1_A\[29\] 1.400e-02
*DRIVER r_add_1_A_reg_29_:Q
*CELL fd2qd1_hd
*C2_R1_C1 7.000e-03 1.157e-02 7.000e-03 
*LOADS
*RC U1640:C 1.620e-04
*RC add_1/a_reg_29_:D 1.620e-04
*END

*R_NET r_add_1_A\[28\] 1.400e-02
*DRIVER r_add_1_A_reg_28_:Q
*CELL fd2qd1_hd
*C2_R1_C1 7.000e-03 1.157e-02 7.000e-03 
*LOADS
*RC U1638:C 1.620e-04
*RC add_1/a_reg_28_:D 1.620e-04
*END

*R_NET r_add_1_A\[27\] 1.400e-02
*DRIVER r_add_1_A_reg_27_:Q
*CELL fd2qd1_hd
*C2_R1_C1 7.000e-03 1.157e-02 7.000e-03 
*LOADS
*RC U1636:C 1.620e-04
*RC add_1/a_reg_27_:D 1.620e-04
*END

*R_NET r_add_1_A\[26\] 1.400e-02
*DRIVER r_add_1_A_reg_26_:Q
*CELL fd2qd1_hd
*C2_R1_C1 7.000e-03 1.157e-02 7.000e-03 
*LOADS
*RC U1634:C 1.620e-04
*RC add_1/a_reg_26_:D 1.620e-04
*END

*R_NET r_add_1_A\[25\] 1.400e-02
*DRIVER r_add_1_A_reg_25_:Q
*CELL fd2qd1_hd
*C2_R1_C1 7.000e-03 1.157e-02 7.000e-03 
*LOADS
*RC U1632:C 1.620e-04
*RC add_1/a_reg_25_:D 1.620e-04
*END

*R_NET r_add_1_A\[24\] 1.400e-02
*DRIVER r_add_1_A_reg_24_:Q
*CELL fd2qd1_hd
*C2_R1_C1 7.000e-03 1.157e-02 7.000e-03 
*LOADS
*RC U1630:C 1.620e-04
*RC add_1/a_reg_24_:D 1.620e-04
*END

*R_NET r_add_1_A\[23\] 1.400e-02
*DRIVER r_add_1_A_reg_23_:Q
*CELL fd2qd1_hd
*C2_R1_C1 7.000e-03 1.157e-02 7.000e-03 
*LOADS
*RC U1628:C 1.620e-04
*RC add_1/a_reg_23_:D 1.620e-04
*END

*R_NET r_add_1_A\[22\] 1.400e-02
*DRIVER r_add_1_A_reg_22_:Q
*CELL fd2qd1_hd
*C2_R1_C1 7.000e-03 1.157e-02 7.000e-03 
*LOADS
*RC U1626:C 1.620e-04
*RC add_1/a_reg_22_:D 1.620e-04
*END

*R_NET r_add_1_A\[21\] 1.400e-02
*DRIVER r_add_1_A_reg_21_:Q
*CELL fd2qd1_hd
*C2_R1_C1 7.000e-03 1.157e-02 7.000e-03 
*LOADS
*RC U1624:C 1.620e-04
*RC add_1/a_reg_21_:D 1.620e-04
*END

*R_NET r_add_1_A\[20\] 1.400e-02
*DRIVER r_add_1_A_reg_20_:Q
*CELL fd2qd1_hd
*C2_R1_C1 7.000e-03 1.157e-02 7.000e-03 
*LOADS
*RC U1622:C 1.620e-04
*RC add_1/a_reg_20_:D 1.620e-04
*END

*R_NET r_add_1_A\[19\] 1.400e-02
*DRIVER r_add_1_A_reg_19_:Q
*CELL fd2qd1_hd
*C2_R1_C1 7.000e-03 1.157e-02 7.000e-03 
*LOADS
*RC U1620:C 1.620e-04
*RC add_1/a_reg_19_:D 1.620e-04
*END

*R_NET r_add_1_A\[18\] 1.400e-02
*DRIVER r_add_1_A_reg_18_:Q
*CELL fd2qd1_hd
*C2_R1_C1 7.000e-03 1.157e-02 7.000e-03 
*LOADS
*RC U1618:C 1.620e-04
*RC add_1/a_reg_18_:D 1.620e-04
*END

*R_NET r_add_1_A\[17\] 1.400e-02
*DRIVER r_add_1_A_reg_17_:Q
*CELL fd2qd1_hd
*C2_R1_C1 7.000e-03 1.157e-02 7.000e-03 
*LOADS
*RC U1616:C 1.620e-04
*RC add_1/a_reg_17_:D 1.620e-04
*END

*R_NET r_add_1_A\[16\] 1.400e-02
*DRIVER r_add_1_A_reg_16_:Q
*CELL fd2qd1_hd
*C2_R1_C1 7.000e-03 1.157e-02 7.000e-03 
*LOADS
*RC U1614:C 1.620e-04
*RC add_1/a_reg_16_:D 1.620e-04
*END

*R_NET r_add_1_A\[15\] 1.400e-02
*DRIVER r_add_1_A_reg_15_:Q
*CELL fd2qd1_hd
*C2_R1_C1 7.000e-03 1.157e-02 7.000e-03 
*LOADS
*RC U1612:C 1.620e-04
*RC add_1/a_reg_15_:D 1.620e-04
*END

*R_NET r_add_1_A\[14\] 1.400e-02
*DRIVER r_add_1_A_reg_14_:Q
*CELL fd2qd1_hd
*C2_R1_C1 7.000e-03 1.157e-02 7.000e-03 
*LOADS
*RC U1610:C 1.620e-04
*RC add_1/a_reg_14_:D 1.620e-04
*END

*R_NET r_add_1_A\[13\] 1.400e-02
*DRIVER r_add_1_A_reg_13_:Q
*CELL fd2qd1_hd
*C2_R1_C1 7.000e-03 1.157e-02 7.000e-03 
*LOADS
*RC U1608:C 1.620e-04
*RC add_1/a_reg_13_:D 1.620e-04
*END

*R_NET r_add_1_A\[12\] 1.400e-02
*DRIVER r_add_1_A_reg_12_:Q
*CELL fd2qd1_hd
*C2_R1_C1 7.000e-03 1.157e-02 7.000e-03 
*LOADS
*RC U1606:C 1.620e-04
*RC add_1/a_reg_12_:D 1.620e-04
*END

*R_NET r_add_1_A\[11\] 1.400e-02
*DRIVER r_add_1_A_reg_11_:Q
*CELL fd2qd1_hd
*C2_R1_C1 7.000e-03 1.157e-02 7.000e-03 
*LOADS
*RC U1604:C 1.620e-04
*RC add_1/a_reg_11_:D 1.620e-04
*END

*R_NET r_add_1_A\[10\] 1.400e-02
*DRIVER r_add_1_A_reg_10_:Q
*CELL fd2qd1_hd
*C2_R1_C1 7.000e-03 1.157e-02 7.000e-03 
*LOADS
*RC U1602:C 1.620e-04
*RC add_1/a_reg_10_:D 1.620e-04
*END

*R_NET r_add_1_A\[9\] 1.400e-02
*DRIVER r_add_1_A_reg_9_:Q
*CELL fd2qd1_hd
*C2_R1_C1 7.000e-03 1.157e-02 7.000e-03 
*LOADS
*RC U1600:C 1.620e-04
*RC add_1/a_reg_9_:D 1.620e-04
*END

*R_NET r_add_1_A\[8\] 1.400e-02
*DRIVER r_add_1_A_reg_8_:Q
*CELL fd2qd1_hd
*C2_R1_C1 7.000e-03 1.157e-02 7.000e-03 
*LOADS
*RC U1598:C 1.620e-04
*RC add_1/a_reg_8_:D 1.620e-04
*END

*R_NET r_add_1_A\[7\] 1.400e-02
*DRIVER r_add_1_A_reg_7_:Q
*CELL fd2qd1_hd
*C2_R1_C1 7.000e-03 1.157e-02 7.000e-03 
*LOADS
*RC U1596:C 1.620e-04
*RC add_1/a_reg_7_:D 1.620e-04
*END

*R_NET r_add_1_A\[6\] 1.400e-02
*DRIVER r_add_1_A_reg_6_:Q
*CELL fd2qd1_hd
*C2_R1_C1 7.000e-03 1.157e-02 7.000e-03 
*LOADS
*RC U1594:C 1.620e-04
*RC add_1/a_reg_6_:D 1.620e-04
*END

*R_NET r_add_1_A\[5\] 1.400e-02
*DRIVER r_add_1_A_reg_5_:Q
*CELL fd2qd1_hd
*C2_R1_C1 7.000e-03 1.157e-02 7.000e-03 
*LOADS
*RC U1592:C 1.620e-04
*RC add_1/a_reg_5_:D 1.620e-04
*END

*R_NET r_add_1_A\[4\] 1.400e-02
*DRIVER r_add_1_A_reg_4_:Q
*CELL fd2qd1_hd
*C2_R1_C1 7.000e-03 1.157e-02 7.000e-03 
*LOADS
*RC U1590:C 1.620e-04
*RC add_1/a_reg_4_:D 1.620e-04
*END

*R_NET r_add_1_A\[3\] 1.400e-02
*DRIVER r_add_1_A_reg_3_:Q
*CELL fd2qd1_hd
*C2_R1_C1 7.000e-03 1.157e-02 7.000e-03 
*LOADS
*RC U1588:C 1.620e-04
*RC add_1/a_reg_3_:D 1.620e-04
*END

*R_NET r_add_1_A\[2\] 1.400e-02
*DRIVER r_add_1_A_reg_2_:Q
*CELL fd2qd1_hd
*C2_R1_C1 7.000e-03 1.157e-02 7.000e-03 
*LOADS
*RC U1586:C 1.620e-04
*RC add_1/a_reg_2_:D 1.620e-04
*END

*R_NET r_add_1_A\[1\] 1.400e-02
*DRIVER r_add_1_A_reg_1_:Q
*CELL fd2qd1_hd
*C2_R1_C1 7.000e-03 1.157e-02 7.000e-03 
*LOADS
*RC U1584:C 1.620e-04
*RC add_1/a_reg_1_:D 1.620e-04
*END

*R_NET r_add_1_A\[0\] 1.400e-02
*DRIVER r_add_1_A_reg_0_:Q
*CELL fd2qd1_hd
*C2_R1_C1 7.000e-03 1.157e-02 7.000e-03 
*LOADS
*RC U1582:C 1.620e-04
*RC add_1/a_reg_0_:D 1.620e-04
*END

*R_NET r_add_1_B\[31\] 1.291e-02
*DRIVER r_add_1_B_reg_31_:Q
*CELL fd2qd1_hd
*C2_R1_C1 6.455e-03 1.157e-02 6.455e-03 
*LOADS
*RC U1511:D 1.494e-04
*RC add_1/b_reg_31_:D 1.494e-04
*END

*R_NET r_add_1_B\[30\] 1.291e-02
*DRIVER r_add_1_B_reg_30_:Q
*CELL fd2qd1_hd
*C2_R1_C1 6.455e-03 1.157e-02 6.455e-03 
*LOADS
*RC U1510:D 1.494e-04
*RC add_1/b_reg_30_:D 1.494e-04
*END

*R_NET r_add_1_B\[29\] 1.291e-02
*DRIVER r_add_1_B_reg_29_:Q
*CELL fd2qd1_hd
*C2_R1_C1 6.455e-03 1.157e-02 6.455e-03 
*LOADS
*RC U1509:D 1.494e-04
*RC add_1/b_reg_29_:D 1.494e-04
*END

*R_NET r_add_1_B\[28\] 1.291e-02
*DRIVER r_add_1_B_reg_28_:Q
*CELL fd2qd1_hd
*C2_R1_C1 6.455e-03 1.157e-02 6.455e-03 
*LOADS
*RC U1508:D 1.494e-04
*RC add_1/b_reg_28_:D 1.494e-04
*END

*R_NET r_add_1_B\[27\] 1.291e-02
*DRIVER r_add_1_B_reg_27_:Q
*CELL fd2qd1_hd
*C2_R1_C1 6.455e-03 1.157e-02 6.455e-03 
*LOADS
*RC U1507:D 1.494e-04
*RC add_1/b_reg_27_:D 1.494e-04
*END

*R_NET r_add_1_B\[26\] 1.291e-02
*DRIVER r_add_1_B_reg_26_:Q
*CELL fd2qd1_hd
*C2_R1_C1 6.455e-03 1.157e-02 6.455e-03 
*LOADS
*RC U1506:D 1.494e-04
*RC add_1/b_reg_26_:D 1.494e-04
*END

*R_NET r_add_1_B\[25\] 1.291e-02
*DRIVER r_add_1_B_reg_25_:Q
*CELL fd2qd1_hd
*C2_R1_C1 6.455e-03 1.157e-02 6.455e-03 
*LOADS
*RC U1505:D 1.494e-04
*RC add_1/b_reg_25_:D 1.494e-04
*END

*R_NET r_add_1_B\[24\] 1.291e-02
*DRIVER r_add_1_B_reg_24_:Q
*CELL fd2qd1_hd
*C2_R1_C1 6.455e-03 1.157e-02 6.455e-03 
*LOADS
*RC U1504:D 1.494e-04
*RC add_1/b_reg_24_:D 1.494e-04
*END

*R_NET r_add_1_B\[23\] 1.291e-02
*DRIVER r_add_1_B_reg_23_:Q
*CELL fd2qd1_hd
*C2_R1_C1 6.455e-03 1.157e-02 6.455e-03 
*LOADS
*RC U1503:D 1.494e-04
*RC add_1/b_reg_23_:D 1.494e-04
*END

*R_NET r_add_1_B\[22\] 1.291e-02
*DRIVER r_add_1_B_reg_22_:Q
*CELL fd2qd1_hd
*C2_R1_C1 6.455e-03 1.157e-02 6.455e-03 
*LOADS
*RC U1502:D 1.494e-04
*RC add_1/b_reg_22_:D 1.494e-04
*END

*R_NET r_add_1_B\[21\] 1.291e-02
*DRIVER r_add_1_B_reg_21_:Q
*CELL fd2qd1_hd
*C2_R1_C1 6.455e-03 1.157e-02 6.455e-03 
*LOADS
*RC U1501:D 1.494e-04
*RC add_1/b_reg_21_:D 1.494e-04
*END

*R_NET r_add_1_B\[20\] 1.291e-02
*DRIVER r_add_1_B_reg_20_:Q
*CELL fd2qd1_hd
*C2_R1_C1 6.455e-03 1.157e-02 6.455e-03 
*LOADS
*RC U1500:D 1.494e-04
*RC add_1/b_reg_20_:D 1.494e-04
*END

*R_NET r_add_1_B\[19\] 1.290e-02
*DRIVER r_add_1_B_reg_19_:Q
*CELL fd2qd1_hd
*C2_R1_C1 6.450e-03 1.157e-02 6.450e-03 
*LOADS
*RC U1499:B 1.493e-04
*RC add_1/b_reg_19_:D 1.493e-04
*END

*R_NET r_add_1_B\[18\] 1.291e-02
*DRIVER r_add_1_B_reg_18_:Q
*CELL fd2qd1_hd
*C2_R1_C1 6.455e-03 1.157e-02 6.455e-03 
*LOADS
*RC U1665:D 1.494e-04
*RC add_1/b_reg_18_:D 1.494e-04
*END

*R_NET r_add_1_B\[17\] 1.291e-02
*DRIVER r_add_1_B_reg_17_:Q
*CELL fd2qd1_hd
*C2_R1_C1 6.455e-03 1.157e-02 6.455e-03 
*LOADS
*RC U1664:D 1.494e-04
*RC add_1/b_reg_17_:D 1.494e-04
*END

*R_NET r_add_1_B\[16\] 1.291e-02
*DRIVER r_add_1_B_reg_16_:Q
*CELL fd2qd1_hd
*C2_R1_C1 6.455e-03 1.157e-02 6.455e-03 
*LOADS
*RC U1663:D 1.494e-04
*RC add_1/b_reg_16_:D 1.494e-04
*END

*R_NET r_add_1_B\[15\] 1.291e-02
*DRIVER r_add_1_B_reg_15_:Q
*CELL fd2qd1_hd
*C2_R1_C1 6.455e-03 1.157e-02 6.455e-03 
*LOADS
*RC U1662:D 1.494e-04
*RC add_1/b_reg_15_:D 1.494e-04
*END

*R_NET r_add_1_B\[14\] 1.291e-02
*DRIVER r_add_1_B_reg_14_:Q
*CELL fd2qd1_hd
*C2_R1_C1 6.455e-03 1.157e-02 6.455e-03 
*LOADS
*RC U1661:D 1.494e-04
*RC add_1/b_reg_14_:D 1.494e-04
*END

*R_NET r_add_1_B\[13\] 1.291e-02
*DRIVER r_add_1_B_reg_13_:Q
*CELL fd2qd1_hd
*C2_R1_C1 6.455e-03 1.157e-02 6.455e-03 
*LOADS
*RC U1660:D 1.494e-04
*RC add_1/b_reg_13_:D 1.494e-04
*END

*R_NET r_add_1_B\[12\] 1.291e-02
*DRIVER r_add_1_B_reg_12_:Q
*CELL fd2qd1_hd
*C2_R1_C1 6.455e-03 1.157e-02 6.455e-03 
*LOADS
*RC U1659:D 1.494e-04
*RC add_1/b_reg_12_:D 1.494e-04
*END

*R_NET r_add_1_B\[11\] 1.291e-02
*DRIVER r_add_1_B_reg_11_:Q
*CELL fd2qd1_hd
*C2_R1_C1 6.455e-03 1.157e-02 6.455e-03 
*LOADS
*RC U1658:D 1.494e-04
*RC add_1/b_reg_11_:D 1.494e-04
*END

*R_NET r_add_1_B\[10\] 1.291e-02
*DRIVER r_add_1_B_reg_10_:Q
*CELL fd2qd1_hd
*C2_R1_C1 6.455e-03 1.157e-02 6.455e-03 
*LOADS
*RC U1657:D 1.494e-04
*RC add_1/b_reg_10_:D 1.494e-04
*END

*R_NET r_add_1_B\[9\] 1.291e-02
*DRIVER r_add_1_B_reg_9_:Q
*CELL fd2qd1_hd
*C2_R1_C1 6.455e-03 1.157e-02 6.455e-03 
*LOADS
*RC U1656:D 1.494e-04
*RC add_1/b_reg_9_:D 1.494e-04
*END

*R_NET r_add_1_B\[8\] 1.291e-02
*DRIVER r_add_1_B_reg_8_:Q
*CELL fd2qd1_hd
*C2_R1_C1 6.455e-03 1.157e-02 6.455e-03 
*LOADS
*RC U1655:D 1.494e-04
*RC add_1/b_reg_8_:D 1.494e-04
*END

*R_NET r_add_1_B\[7\] 1.291e-02
*DRIVER r_add_1_B_reg_7_:Q
*CELL fd2qd1_hd
*C2_R1_C1 6.455e-03 1.157e-02 6.455e-03 
*LOADS
*RC U1654:D 1.494e-04
*RC add_1/b_reg_7_:D 1.494e-04
*END

*R_NET r_add_1_B\[6\] 1.291e-02
*DRIVER r_add_1_B_reg_6_:Q
*CELL fd2qd1_hd
*C2_R1_C1 6.455e-03 1.157e-02 6.455e-03 
*LOADS
*RC U1653:D 1.494e-04
*RC add_1/b_reg_6_:D 1.494e-04
*END

*R_NET r_add_1_B\[5\] 1.291e-02
*DRIVER r_add_1_B_reg_5_:Q
*CELL fd2qd1_hd
*C2_R1_C1 6.455e-03 1.157e-02 6.455e-03 
*LOADS
*RC U1652:D 1.494e-04
*RC add_1/b_reg_5_:D 1.494e-04
*END

*R_NET r_add_1_B\[4\] 1.291e-02
*DRIVER r_add_1_B_reg_4_:Q
*CELL fd2qd1_hd
*C2_R1_C1 6.455e-03 1.157e-02 6.455e-03 
*LOADS
*RC U1651:D 1.494e-04
*RC add_1/b_reg_4_:D 1.494e-04
*END

*R_NET r_add_1_B\[3\] 1.291e-02
*DRIVER r_add_1_B_reg_3_:Q
*CELL fd2qd1_hd
*C2_R1_C1 6.455e-03 1.157e-02 6.455e-03 
*LOADS
*RC U1650:D 1.494e-04
*RC add_1/b_reg_3_:D 1.494e-04
*END

*R_NET r_add_1_B\[2\] 1.291e-02
*DRIVER r_add_1_B_reg_2_:Q
*CELL fd2qd1_hd
*C2_R1_C1 6.455e-03 1.157e-02 6.455e-03 
*LOADS
*RC U1649:D 1.494e-04
*RC add_1/b_reg_2_:D 1.494e-04
*END

*R_NET r_add_1_B\[1\] 1.291e-02
*DRIVER r_add_1_B_reg_1_:Q
*CELL fd2qd1_hd
*C2_R1_C1 6.455e-03 1.157e-02 6.455e-03 
*LOADS
*RC U1648:D 1.494e-04
*RC add_1/b_reg_1_:D 1.494e-04
*END

*R_NET r_add_1_B\[0\] 1.291e-02
*DRIVER r_add_1_B_reg_0_:Q
*CELL fd2qd1_hd
*C2_R1_C1 6.455e-03 1.157e-02 6.455e-03 
*LOADS
*RC U1647:D 1.494e-04
*RC add_1/b_reg_0_:D 1.494e-04
*END

*R_NET r_add_1_AB_STB 1.282e-02
*DRIVER r_add_1_AB_STB_reg:Q
*CELL fd2qd1_hd
*C2_R1_C1 6.410e-03 1.157e-02 6.410e-03 
*LOADS
*RC U1580:B 1.483e-04
*RC add_1/U620:B 1.483e-04
*END

*R_NET w_add_1_Z\[31\] 1.923e-02
*DRIVER add_1/o_Z_reg_31_:Q
*CELL fd1eqd1_hd
*C2_R1_C1 9.615e-03 1.366e-02 9.615e-03 
*LOADS
*RC U1275:A 2.627e-04
*RC U1363:D 2.627e-04
*RC U1511:B 2.627e-04
*END

*R_NET w_add_1_Z\[30\] 1.923e-02
*DRIVER add_1/o_Z_reg_30_:Q
*CELL fd1eqd1_hd
*C2_R1_C1 9.615e-03 1.366e-02 9.615e-03 
*LOADS
*RC U1267:A 2.627e-04
*RC U1362:D 2.627e-04
*RC U1510:B 2.627e-04
*END

*R_NET w_add_1_Z\[29\] 1.914e-02
*DRIVER add_1/o_Z_reg_29_:Q
*CELL fd1eqd1_hd
*C2_R1_C1 9.570e-03 1.366e-02 9.570e-03 
*LOADS
*RC U1262:A 2.615e-04
*RC U1361:F 2.615e-04
*RC U1509:B 2.615e-04
*END

*R_NET w_add_1_Z\[28\] 1.914e-02
*DRIVER add_1/o_Z_reg_28_:Q
*CELL fd1eqd1_hd
*C2_R1_C1 9.570e-03 1.366e-02 9.570e-03 
*LOADS
*RC U1261:A 2.615e-04
*RC U1360:F 2.615e-04
*RC U1508:B 2.615e-04
*END

*R_NET w_add_1_Z\[27\] 1.914e-02
*DRIVER add_1/o_Z_reg_27_:Q
*CELL fd1eqd1_hd
*C2_R1_C1 9.570e-03 1.366e-02 9.570e-03 
*LOADS
*RC U1264:A 2.615e-04
*RC U1359:F 2.615e-04
*RC U1507:B 2.615e-04
*END

*R_NET w_add_1_Z\[26\] 1.914e-02
*DRIVER add_1/o_Z_reg_26_:Q
*CELL fd1eqd1_hd
*C2_R1_C1 9.570e-03 1.366e-02 9.570e-03 
*LOADS
*RC U1263:A 2.615e-04
*RC U1351:F 2.615e-04
*RC U1506:B 2.615e-04
*END

*R_NET w_add_1_Z\[25\] 1.914e-02
*DRIVER add_1/o_Z_reg_25_:Q
*CELL fd1eqd1_hd
*C2_R1_C1 9.570e-03 1.366e-02 9.570e-03 
*LOADS
*RC U1257:A 2.615e-04
*RC U1348:F 2.615e-04
*RC U1505:B 2.615e-04
*END

*R_NET w_add_1_Z\[24\] 1.914e-02
*DRIVER add_1/o_Z_reg_24_:Q
*CELL fd1eqd1_hd