*SPEF "IEEE 1481-1999"
*DESIGN "uart_controller"
*DATE "Wed Jun 17 19:12:21 2020"
*VENDOR "SYNOPSYS INC"
*PROGRAM "Synopsys Design Compiler cmos"
*VERSION "F-2011.09-SP5-3"
*DESIGN_FLOW "SYNTHESIS"
*DIVIDER /
*DELIMITER :
*BUS_DELIMITER []
*T_UNIT 1.0 NS
*C_UNIT 1.0 PF
*R_UNIT 1.0 KOHM
*L_UNIT 1.0 HENRY

*PORTS

i_UART_DATA_TX\[55\] I *L 1.900e-03 *S 1.339e-01 1.734e-01 *D fd2qd1_hd 
i_UART_DATA_TX\[54\] I *L 1.900e-03 *S 1.339e-01 1.733e-01 *D fd2qd1_hd 
i_UART_DATA_TX\[53\] I *L 2.040e-03 *S 1.351e-01 1.746e-01 *D fd2qd1_hd 
i_UART_DATA_TX\[52\] I *L 0.000e+00 *S 0.000e+00 0.000e+00 
i_UART_DATA_TX\[51\] I *L 1.900e-03 *S 1.339e-01 1.734e-01 *D fd2qd1_hd 
i_UART_DATA_TX\[50\] I *L 1.900e-03 *S 1.339e-01 1.734e-01 *D fd2qd1_hd 
i_UART_DATA_TX\[49\] I *L 1.900e-03 *S 1.339e-01 1.734e-01 *D fd2qd1_hd 
i_UART_DATA_TX\[48\] I *L 1.900e-03 *S 1.339e-01 1.734e-01 *D fd2qd1_hd 
i_UART_DATA_TX\[47\] I *L 1.900e-03 *S 1.339e-01 1.733e-01 *D fd2qd1_hd 
i_UART_DATA_TX\[46\] I *L 1.900e-03 *S 1.339e-01 1.733e-01 *D fd2qd1_hd 
i_UART_DATA_TX\[45\] I *L 1.900e-03 *S 1.339e-01 1.733e-01 *D fd2qd1_hd 
i_UART_DATA_TX\[44\] I *L 1.900e-03 *S 1.339e-01 1.733e-01 *D fd2qd1_hd 
i_UART_DATA_TX\[43\] I *L 1.900e-03 *S 1.339e-01 1.733e-01 *D fd2qd1_hd 
i_UART_DATA_TX\[42\] I *L 1.900e-03 *S 1.339e-01 1.733e-01 *D fd2qd1_hd 
i_UART_DATA_TX\[41\] I *L 1.900e-03 *S 1.339e-01 1.733e-01 *D fd2qd1_hd 
i_UART_DATA_TX\[40\] I *L 1.900e-03 *S 1.339e-01 1.733e-01 *D fd2qd1_hd 
i_UART_DATA_TX\[39\] I *L 1.900e-03 *S 1.339e-01 1.733e-01 *D fd2qd1_hd 
i_UART_DATA_TX\[38\] I *L 1.900e-03 *S 1.339e-01 1.733e-01 *D fd2qd1_hd 
i_UART_DATA_TX\[37\] I *L 1.900e-03 *S 1.339e-01 1.733e-01 *D fd2qd1_hd 
i_UART_DATA_TX\[36\] I *L 1.900e-03 *S 1.339e-01 1.733e-01 *D fd2qd1_hd 
i_UART_DATA_TX\[35\] I *L 1.900e-03 *S 1.339e-01 1.733e-01 *D fd2qd1_hd 
i_UART_DATA_TX\[34\] I *L 1.900e-03 *S 1.339e-01 1.734e-01 *D fd2qd1_hd 
i_UART_DATA_TX\[33\] I *L 1.900e-03 *S 1.339e-01 1.734e-01 *D fd2qd1_hd 
i_UART_DATA_TX\[32\] I *L 1.900e-03 *S 1.339e-01 1.734e-01 *D fd2qd1_hd 
i_UART_DATA_TX\[31\] I *L 1.900e-03 *S 1.339e-01 1.734e-01 *D fd2qd1_hd 
i_UART_DATA_TX\[30\] I *L 1.900e-03 *S 1.339e-01 1.734e-01 *D fd2qd1_hd 
i_UART_DATA_TX\[29\] I *L 1.900e-03 *S 1.339e-01 1.734e-01 *D fd2qd1_hd 
i_UART_DATA_TX\[28\] I *L 1.900e-03 *S 1.339e-01 1.734e-01 *D fd2qd1_hd 
i_UART_DATA_TX\[27\] I *L 1.900e-03 *S 1.339e-01 1.734e-01 *D fd2qd1_hd 
i_UART_DATA_TX\[26\] I *L 1.900e-03 *S 1.339e-01 1.734e-01 *D fd2qd1_hd 
i_UART_DATA_TX\[25\] I *L 1.900e-03 *S 1.339e-01 1.734e-01 *D fd2qd1_hd 
i_UART_DATA_TX\[24\] I *L 1.900e-03 *S 1.339e-01 1.734e-01 *D fd2qd1_hd 
i_UART_DATA_TX\[23\] I *L 0.000e+00 *S 0.000e+00 0.000e+00 
i_UART_DATA_TX\[22\] I *L 0.000e+00 *S 0.000e+00 0.000e+00 
i_UART_DATA_TX\[21\] I *L 0.000e+00 *S 0.000e+00 0.000e+00 
i_UART_DATA_TX\[20\] I *L 0.000e+00 *S 0.000e+00 0.000e+00 
i_UART_DATA_TX\[19\] I *L 1.900e-03 *S 1.339e-01 1.733e-01 *D fd2qd1_hd 
i_UART_DATA_TX\[18\] I *L 1.900e-03 *S 1.339e-01 1.734e-01 *D fd2qd1_hd 
i_UART_DATA_TX\[17\] I *L 1.900e-03 *S 1.339e-01 1.733e-01 *D fd2qd1_hd 
i_UART_DATA_TX\[16\] I *L 1.900e-03 *S 1.339e-01 1.733e-01 *D fd2qd1_hd 
i_UART_DATA_TX\[15\] I *L 1.900e-03 *S 1.339e-01 1.733e-01 *D fd2qd1_hd 
i_UART_DATA_TX\[14\] I *L 1.900e-03 *S 1.339e-01 1.733e-01 *D fd2qd1_hd 
i_UART_DATA_TX\[13\] I *L 1.900e-03 *S 1.339e-01 1.733e-01 *D fd2qd1_hd 
i_UART_DATA_TX\[12\] I *L 1.900e-03 *S 1.339e-01 1.733e-01 *D fd2qd1_hd 
i_UART_DATA_TX\[11\] I *L 1.900e-03 *S 1.339e-01 1.733e-01 *D fd2qd1_hd 
i_UART_DATA_TX\[10\] I *L 1.900e-03 *S 1.339e-01 1.733e-01 *D fd2qd1_hd 
i_UART_DATA_TX\[9\] I *L 1.900e-03 *S 1.339e-01 1.733e-01 *D fd2qd1_hd 
i_UART_DATA_TX\[8\] I *L 1.900e-03 *S 1.339e-01 1.733e-01 *D fd2qd1_hd 
i_UART_DATA_TX\[7\] I *L 1.900e-03 *S 1.328e-01 1.722e-01 *D fd2qd1_hd 
i_UART_DATA_TX\[6\] I *L 0.000e+00 *S 0.000e+00 0.000e+00 
i_UART_DATA_TX\[5\] I *L 1.900e-03 *S 1.328e-01 1.722e-01 *D fd2qd1_hd 
i_UART_DATA_TX\[4\] I *L 1.900e-03 *S 1.328e-01 1.722e-01 *D fd2qd1_hd 
i_UART_DATA_TX\[3\] I *L 1.900e-03 *S 1.328e-01 1.722e-01 *D fd2qd1_hd 
i_UART_DATA_TX\[2\] I *L 0.000e+00 *S 0.000e+00 0.000e+00 
i_UART_DATA_TX\[1\] I *L 1.900e-03 *S 1.328e-01 1.722e-01 *D fd2qd1_hd 
i_UART_DATA_TX\[0\] I *L 1.900e-03 *S 1.328e-01 1.722e-01 *D fd2qd1_hd 
i_UART_DATA_TX_VALID I *L 1.900e-03 *S 3.356e-01 3.472e-01 *D fd2qd1_hd 
o_UART_DATA_TX_READY O *L 1.035e-02 *S 2.560e-01 2.823e-01 
o_UART_DATA_RX\[15\] O *L 1.035e-02 *S 1.440e-01 1.837e-01 
o_UART_DATA_RX\[14\] O *L 1.035e-02 *S 1.440e-01 1.837e-01 
o_UART_DATA_RX\[13\] O *L 1.035e-02 *S 1.440e-01 1.837e-01 
o_UART_DATA_RX\[12\] O *L 1.035e-02 *S 1.440e-01 1.837e-01 
o_UART_DATA_RX\[11\] O *L 1.035e-02 *S 1.440e-01 1.837e-01 
o_UART_DATA_RX\[10\] O *L 1.035e-02 *S 1.440e-01 1.837e-01 
o_UART_DATA_RX\[9\] O *L 1.035e-02 *S 1.440e-01 1.837e-01 
o_UART_DATA_RX\[8\] O *L 1.035e-02 *S 1.440e-01 1.837e-01 
o_UART_DATA_RX\[7\] O *L 1.035e-02 *S 1.440e-01 1.837e-01 
o_UART_DATA_RX\[6\] O *L 1.035e-02 *S 1.440e-01 1.837e-01 
o_UART_DATA_RX\[5\] O *L 1.035e-02 *S 1.440e-01 1.837e-01 
o_UART_DATA_RX\[4\] O *L 1.035e-02 *S 1.440e-01 1.837e-01 
o_UART_DATA_RX\[3\] O *L 1.035e-02 *S 1.440e-01 1.837e-01 
o_UART_DATA_RX\[2\] O *L 1.035e-02 *S 1.440e-01 1.837e-01 
o_UART_DATA_RX\[1\] O *L 1.035e-02 *S 1.440e-01 1.837e-01 
o_UART_DATA_RX\[0\] O *L 1.035e-02 *S 1.440e-01 1.837e-01 
o_UART_DATA_RX_VALID O *L 1.035e-02 *S 2.560e-01 2.823e-01 
i_CORE_BUSY I *L 0.000e+00 *S 0.000e+00 0.000e+00 
i_UART_RXD I *L 0.000e+00 *S 0.000e+00 0.000e+00 
o_UART_TXD O *L 1.035e-02 *S 2.048e-01 1.629e-01 
i_CLK I *L 0.000e+00 *S 0.000e+00 0.000e+00 *D fj4d1_hd 
i_RSTN I *L 1.424e-02 *S 0.000e+00 0.000e+00 *D nid1_hd 

*R_NET i_UART_DATA_TX\[55\] 1.458e-02
*DRIVER i_UART_DATA_TX\[55\]
*CELL fd2qd1_hd
*C2_R1_C1 7.290e-03 1.275e-02 7.290e-03 
*LOADS
*RC U62:A 1.859e-04
*END

*R_NET i_UART_DATA_TX\[54\] 1.458e-02
*DRIVER i_UART_DATA_TX\[54\]
*CELL fd2qd1_hd
*C2_R1_C1 7.290e-03 1.275e-02 7.290e-03 
*LOADS
*RC U61:A 1.859e-04
*END

*R_NET i_UART_DATA_TX\[53\] 1.472e-02
*DRIVER i_UART_DATA_TX\[53\]
*CELL fd2qd1_hd
*C2_R1_C1 7.360e-03 1.275e-02 7.360e-03 
*LOADS
*RC U60:A 1.877e-04
*END

*R_NET i_UART_DATA_TX\[52\] 7.020e-03
*DRIVER i_UART_DATA_TX\[52\]
*CELL NULL
*C2_R1_C1 3.510e-03 8.080e-03 3.510e-03 
*LOADS
*RC U70:A 5.672e-05
*END

*R_NET i_UART_DATA_TX\[51\] 1.458e-02
*DRIVER i_UART_DATA_TX\[51\]
*CELL fd2qd1_hd
*C2_R1_C1 7.290e-03 1.275e-02 7.290e-03 
*LOADS
*RC U59:A 1.859e-04
*END

*R_NET i_UART_DATA_TX\[50\] 1.458e-02
*DRIVER i_UART_DATA_TX\[50\]
*CELL fd2qd1_hd
*C2_R1_C1 7.290e-03 1.275e-02 7.290e-03 
*LOADS
*RC U58:A 1.859e-04
*END

*R_NET i_UART_DATA_TX\[49\] 1.458e-02
*DRIVER i_UART_DATA_TX\[49\]
*CELL fd2qd1_hd
*C2_R1_C1 7.290e-03 1.275e-02 7.290e-03 
*LOADS
*RC U57:A 1.859e-04
*END

*R_NET i_UART_DATA_TX\[48\] 1.458e-02
*DRIVER i_UART_DATA_TX\[48\]
*CELL fd2qd1_hd
*C2_R1_C1 7.290e-03 1.275e-02 7.290e-03 
*LOADS
*RC U56:A 1.859e-04
*END

*R_NET i_UART_DATA_TX\[47\] 1.458e-02
*DRIVER i_UART_DATA_TX\[47\]
*CELL fd2qd1_hd
*C2_R1_C1 7.290e-03 1.275e-02 7.290e-03 
*LOADS
*RC U55:A 1.859e-04
*END

*R_NET i_UART_DATA_TX\[46\] 1.458e-02
*DRIVER i_UART_DATA_TX\[46\]
*CELL fd2qd1_hd
*C2_R1_C1 7.290e-03 1.275e-02 7.290e-03 
*LOADS
*RC U54:A 1.859e-04
*END

*R_NET i_UART_DATA_TX\[45\] 1.458e-02
*DRIVER i_UART_DATA_TX\[45\]
*CELL fd2qd1_hd
*C2_R1_C1 7.290e-03 1.275e-02 7.290e-03 
*LOADS
*RC U53:A 1.859e-04
*END

*R_NET i_UART_DATA_TX\[44\] 1.458e-02
*DRIVER i_UART_DATA_TX\[44\]
*CELL fd2qd1_hd
*C2_R1_C1 7.290e-03 1.275e-02 7.290e-03 
*LOADS
*RC U52:A 1.859e-04
*END

*R_NET i_UART_DATA_TX\[43\] 1.458e-02
*DRIVER i_UART_DATA_TX\[43\]
*CELL fd2qd1_hd
*C2_R1_C1 7.290e-03 1.275e-02 7.290e-03 
*LOADS
*RC U51:A 1.859e-04
*END

*R_NET i_UART_DATA_TX\[42\] 1.458e-02
*DRIVER i_UART_DATA_TX\[42\]
*CELL fd2qd1_hd
*C2_R1_C1 7.290e-03 1.275e-02 7.290e-03 
*LOADS
*RC U50:A 1.859e-04
*END

*R_NET i_UART_DATA_TX\[41\] 1.458e-02
*DRIVER i_UART_DATA_TX\[41\]
*CELL fd2qd1_hd
*C2_R1_C1 7.290e-03 1.275e-02 7.290e-03 
*LOADS
*RC U49:A 1.859e-04
*END

*R_NET i_UART_DATA_TX\[40\] 1.458e-02
*DRIVER i_UART_DATA_TX\[40\]
*CELL fd2qd1_hd
*C2_R1_C1 7.290e-03 1.275e-02 7.290e-03 
*LOADS
*RC U48:A 1.859e-04
*END

*R_NET i_UART_DATA_TX\[39\] 1.458e-02
*DRIVER i_UART_DATA_TX\[39\]
*CELL fd2qd1_hd
*C2_R1_C1 7.290e-03 1.275e-02 7.290e-03 
*LOADS
*RC U47:A 1.859e-04
*END

*R_NET i_UART_DATA_TX\[38\] 1.458e-02
*DRIVER i_UART_DATA_TX\[38\]
*CELL fd2qd1_hd
*C2_R1_C1 7.290e-03 1.275e-02 7.290e-03 
*LOADS
*RC U46:A 1.859e-04
*END

*R_NET i_UART_DATA_TX\[37\] 1.458e-02
*DRIVER i_UART_DATA_TX\[37\]
*CELL fd2qd1_hd
*C2_R1_C1 7.290e-03 1.275e-02 7.290e-03 
*LOADS
*RC U45:A 1.859e-04
*END

*R_NET i_UART_DATA_TX\[36\] 1.458e-02
*DRIVER i_UART_DATA_TX\[36\]
*CELL fd2qd1_hd
*C2_R1_C1 7.290e-03 1.275e-02 7.290e-03 
*LOADS
*RC U44:A 1.859e-04
*END

*R_NET i_UART_DATA_TX\[35\] 1.458e-02
*DRIVER i_UART_DATA_TX\[35\]
*CELL fd2qd1_hd
*C2_R1_C1 7.290e-03 1.275e-02 7.290e-03 
*LOADS
*RC U43:A 1.859e-04
*END

*R_NET i_UART_DATA_TX\[34\] 1.458e-02
*DRIVER i_UART_DATA_TX\[34\]
*CELL fd2qd1_hd
*C2_R1_C1 7.290e-03 1.275e-02 7.290e-03 
*LOADS
*RC U42:A 1.859e-04
*END

*R_NET i_UART_DATA_TX\[33\] 1.458e-02
*DRIVER i_UART_DATA_TX\[33\]
*CELL fd2qd1_hd
*C2_R1_C1 7.290e-03 1.275e-02 7.290e-03 
*LOADS
*RC U41:A 1.859e-04
*END

*R_NET i_UART_DATA_TX\[32\] 1.458e-02
*DRIVER i_UART_DATA_TX\[32\]
*CELL fd2qd1_hd
*C2_R1_C1 7.290e-03 1.275e-02 7.290e-03 
*LOADS
*RC U40:A 1.859e-04
*END

*R_NET i_UART_DATA_TX\[31\] 1.458e-02
*DRIVER i_UART_DATA_TX\[31\]
*CELL fd2qd1_hd
*C2_R1_C1 7.290e-03 1.275e-02 7.290e-03 
*LOADS
*RC U39:A 1.859e-04
*END

*R_NET i_UART_DATA_TX\[30\] 1.458e-02
*DRIVER i_UART_DATA_TX\[30\]
*CELL fd2qd1_hd
*C2_R1_C1 7.290e-03 1.275e-02 7.290e-03 
*LOADS
*RC U38:A 1.859e-04
*END

*R_NET i_UART_DATA_TX\[29\] 1.458e-02
*DRIVER i_UART_DATA_TX\[29\]
*CELL fd2qd1_hd
*C2_R1_C1 7.290e-03 1.275e-02 7.290e-03 
*LOADS
*RC U37:A 1.859e-04
*END

*R_NET i_UART_DATA_TX\[28\] 1.458e-02
*DRIVER i_UART_DATA_TX\[28\]
*CELL fd2qd1_hd
*C2_R1_C1 7.290e-03 1.275e-02 7.290e-03 
*LOADS
*RC U36:A 1.859e-04
*END

*R_NET i_UART_DATA_TX\[27\] 1.458e-02
*DRIVER i_UART_DATA_TX\[27\]
*CELL fd2qd1_hd
*C2_R1_C1 7.290e-03 1.275e-02 7.290e-03 
*LOADS
*RC U35:A 1.859e-04
*END

*R_NET i_UART_DATA_TX\[26\] 1.458e-02
*DRIVER i_UART_DATA_TX\[26\]
*CELL fd2qd1_hd
*C2_R1_C1 7.290e-03 1.275e-02 7.290e-03 
*LOADS
*RC U34:A 1.859e-04
*END

*R_NET i_UART_DATA_TX\[25\] 1.458e-02
*DRIVER i_UART_DATA_TX\[25\]
*CELL fd2qd1_hd
*C2_R1_C1 7.290e-03 1.275e-02 7.290e-03 
*LOADS
*RC U33:A 1.859e-04
*END

*R_NET i_UART_DATA_TX\[24\] 1.458e-02
*DRIVER i_UART_DATA_TX\[24\]
*CELL fd2qd1_hd
*C2_R1_C1 7.290e-03 1.275e-02 7.290e-03 
*LOADS
*RC U32:A 1.859e-04
*END

*R_NET i_UART_DATA_TX\[23\] 7.020e-03
*DRIVER i_UART_DATA_TX\[23\]
*CELL NULL
*C2_R1_C1 3.510e-03 8.080e-03 3.510e-03 
*LOADS
*RC U69:A 5.672e-05
*END

*R_NET i_UART_DATA_TX\[22\] 7.020e-03
*DRIVER i_UART_DATA_TX\[22\]
*CELL NULL
*C2_R1_C1 3.510e-03 8.080e-03 3.510e-03 
*LOADS
*RC U68:A 5.672e-05
*END

*R_NET i_UART_DATA_TX\[21\] 7.020e-03
*DRIVER i_UART_DATA_TX\[21\]
*CELL NULL
*C2_R1_C1 3.510e-03 8.080e-03 3.510e-03 
*LOADS
*RC U67:A 5.672e-05
*END

*R_NET i_UART_DATA_TX\[20\] 7.020e-03
*DRIVER i_UART_DATA_TX\[20\]
*CELL NULL
*C2_R1_C1 3.510e-03 8.080e-03 3.510e-03 
*LOADS
*RC U66:A 5.672e-05
*END

*R_NET i_UART_DATA_TX\[19\] 1.458e-02
*DRIVER i_UART_DATA_TX\[19\]
*CELL fd2qd1_hd
*C2_R1_C1 7.290e-03 1.275e-02 7.290e-03 
*LOADS
*RC U31:A 1.859e-04
*END

*R_NET i_UART_DATA_TX\[18\] 1.458e-02
*DRIVER i_UART_DATA_TX\[18\]
*CELL fd2qd1_hd
*C2_R1_C1 7.290e-03 1.275e-02 7.290e-03 
*LOADS
*RC U30:A 1.859e-04
*END

*R_NET i_UART_DATA_TX\[17\] 1.458e-02
*DRIVER i_UART_DATA_TX\[17\]
*CELL fd2qd1_hd
*C2_R1_C1 7.290e-03 1.275e-02 7.290e-03 
*LOADS
*RC U29:A 1.859e-04
*END

*R_NET i_UART_DATA_TX\[16\] 1.458e-02
*DRIVER i_UART_DATA_TX\[16\]
*CELL fd2qd1_hd
*C2_R1_C1 7.290e-03 1.275e-02 7.290e-03 
*LOADS
*RC U22:A 1.859e-04
*END

*R_NET i_UART_DATA_TX\[15\] 1.458e-02
*DRIVER i_UART_DATA_TX\[15\]
*CELL fd2qd1_hd
*C2_R1_C1 7.290e-03 1.275e-02 7.290e-03 
*LOADS
*RC U19:A 1.859e-04
*END

*R_NET i_UART_DATA_TX\[14\] 1.458e-02
*DRIVER i_UART_DATA_TX\[14\]
*CELL fd2qd1_hd
*C2_R1_C1 7.290e-03 1.275e-02 7.290e-03 
*LOADS
*RC U13:A 1.859e-04
*END

*R_NET i_UART_DATA_TX\[13\] 1.458e-02
*DRIVER i_UART_DATA_TX\[13\]
*CELL fd2qd1_hd
*C2_R1_C1 7.290e-03 1.275e-02 7.290e-03 
*LOADS
*RC U12:A 1.859e-04
*END

*R_NET i_UART_DATA_TX\[12\] 1.458e-02
*DRIVER i_UART_DATA_TX\[12\]
*CELL fd2qd1_hd
*C2_R1_C1 7.290e-03 1.275e-02 7.290e-03 
*LOADS
*RC U11:A 1.859e-04
*END

*R_NET i_UART_DATA_TX\[11\] 1.458e-02
*DRIVER i_UART_DATA_TX\[11\]
*CELL fd2qd1_hd
*C2_R1_C1 7.290e-03 1.275e-02 7.290e-03 
*LOADS
*RC U9:A 1.859e-04
*END

*R_NET i_UART_DATA_TX\[10\] 1.458e-02
*DRIVER i_UART_DATA_TX\[10\]
*CELL fd2qd1_hd
*C2_R1_C1 7.290e-03 1.275e-02 7.290e-03 
*LOADS
*RC U7:A 1.859e-04
*END

*R_NET i_UART_DATA_TX\[9\] 1.458e-02
*DRIVER i_UART_DATA_TX\[9\]
*CELL fd2qd1_hd
*C2_R1_C1 7.290e-03 1.275e-02 7.290e-03 
*LOADS
*RC U6:A 1.859e-04
*END

*R_NET i_UART_DATA_TX\[8\] 1.458e-02
*DRIVER i_UART_DATA_TX\[8\]
*CELL fd2qd1_hd
*C2_R1_C1 7.290e-03 1.275e-02 7.290e-03 
*LOADS
*RC U4:A 1.859e-04
*END

*R_NET i_UART_DATA_TX\[7\] 1.444e-02
*DRIVER i_UART_DATA_TX\[7\]
*CELL fd2qd1_hd
*C2_R1_C1 7.220e-03 1.275e-02 7.220e-03 
*LOADS
*RC U77:A 1.841e-04
*END

*R_NET i_UART_DATA_TX\[6\] 6.880e-03
*DRIVER i_UART_DATA_TX\[6\]
*CELL NULL
*C2_R1_C1 3.440e-03 8.080e-03 3.440e-03 
*LOADS
*RC U78:A 5.559e-05
*END

*R_NET i_UART_DATA_TX\[5\] 1.444e-02
*DRIVER i_UART_DATA_TX\[5\]
*CELL fd2qd1_hd
*C2_R1_C1 7.220e-03 1.275e-02 7.220e-03 
*LOADS
*RC U79:A 1.841e-04
*END

*R_NET i_UART_DATA_TX\[4\] 1.444e-02
*DRIVER i_UART_DATA_TX\[4\]
*CELL fd2qd1_hd
*C2_R1_C1 7.220e-03 1.275e-02 7.220e-03 
*LOADS
*RC U80:A 1.841e-04
*END

*R_NET i_UART_DATA_TX\[3\] 1.444e-02
*DRIVER i_UART_DATA_TX\[3\]
*CELL fd2qd1_hd
*C2_R1_C1 7.220e-03 1.275e-02 7.220e-03 
*LOADS
*RC U81:A 1.841e-04
*END

*R_NET i_UART_DATA_TX\[2\] 6.880e-03
*DRIVER i_UART_DATA_TX\[2\]
*CELL NULL
*C2_R1_C1 3.440e-03 8.080e-03 3.440e-03 
*LOADS
*RC U82:A 5.559e-05
*END

*R_NET i_UART_DATA_TX\[1\] 1.444e-02
*DRIVER i_UART_DATA_TX\[1\]
*CELL fd2qd1_hd
*C2_R1_C1 7.220e-03 1.275e-02 7.220e-03 
*LOADS
*RC U83:A 1.841e-04
*END

*R_NET i_UART_DATA_TX\[0\] 1.444e-02
*DRIVER i_UART_DATA_TX\[0\]
*CELL fd2qd1_hd
*C2_R1_C1 7.220e-03 1.275e-02 7.220e-03 
*LOADS
*RC U84:A 1.841e-04
*END

*R_NET o_UART_DATA_RX\[15\] 1.579e-02
*DRIVER o_UART_DATA_RX_reg_15_:Q
*CELL fd2qd1_hd
*C2_R1_C1 7.895e-03 8.080e-03 7.895e-03 
*LOADS
*RC o_UART_DATA_RX\[15\] 1.276e-04
*END

*R_NET o_UART_DATA_RX\[14\] 1.579e-02
*DRIVER o_UART_DATA_RX_reg_14_:Q
*CELL fd2qd1_hd
*C2_R1_C1 7.895e-03 8.080e-03 7.895e-03 
*LOADS
*RC o_UART_DATA_RX\[14\] 1.276e-04
*END

*R_NET o_UART_DATA_RX\[13\] 1.579e-02
*DRIVER o_UART_DATA_RX_reg_13_:Q
*CELL fd2qd1_hd
*C2_R1_C1 7.895e-03 8.080e-03 7.895e-03 
*LOADS
*RC o_UART_DATA_RX\[13\] 1.276e-04
*END

*R_NET o_UART_DATA_RX\[12\] 1.579e-02
*DRIVER o_UART_DATA_RX_reg_12_:Q
*CELL fd2qd1_hd
*C2_R1_C1 7.895e-03 8.080e-03 7.895e-03 
*LOADS
*RC o_UART_DATA_RX\[12\] 1.276e-04
*END

*R_NET o_UART_DATA_RX\[11\] 1.579e-02
*DRIVER o_UART_DATA_RX_reg_11_:Q
*CELL fd2qd1_hd
*C2_R1_C1 7.895e-03 8.080e-03 7.895e-03 
*LOADS
*RC o_UART_DATA_RX\[11\] 1.276e-04
*END

*R_NET o_UART_DATA_RX\[10\] 1.579e-02
*DRIVER o_UART_DATA_RX_reg_10_:Q
*CELL fd2qd1_hd
*C2_R1_C1 7.895e-03 8.080e-03 7.895e-03 
*LOADS
*RC o_UART_DATA_RX\[10\] 1.276e-04
*END

*R_NET o_UART_DATA_RX\[9\] 1.579e-02
*DRIVER o_UART_DATA_RX_reg_9_:Q
*CELL fd2qd1_hd
*C2_R1_C1 7.895e-03 8.080e-03 7.895e-03 
*LOADS
*RC o_UART_DATA_RX\[9\] 1.276e-04
*END

*R_NET o_UART_DATA_RX\[8\] 1.579e-02
*DRIVER o_UART_DATA_RX_reg_8_:Q
*CELL fd2qd1_hd
*C2_R1_C1 7.895e-03 8.080e-03 7.895e-03 
*LOADS
*RC o_UART_DATA_RX\[8\] 1.276e-04
*END

*R_NET o_UART_DATA_RX\[7\] 1.579e-02
*DRIVER o_UART_DATA_RX_reg_7_:Q
*CELL fd2qd1_hd
*C2_R1_C1 7.895e-03 8.080e-03 7.895e-03 
*LOADS
*RC o_UART_DATA_RX\[7\] 1.276e-04
*END

*R_NET o_UART_DATA_RX\[6\] 1.579e-02
*DRIVER o_UART_DATA_RX_reg_6_:Q
*CELL fd2qd1_hd
*C2_R1_C1 7.895e-03 8.080e-03 7.895e-03 
*LOADS
*RC o_UART_DATA_RX\[6\] 1.276e-04
*END

*R_NET o_UART_DATA_RX\[5\] 1.579e-02
*DRIVER o_UART_DATA_RX_reg_5_:Q
*CELL fd2qd1_hd
*C2_R1_C1 7.895e-03 8.080e-03 7.895e-03 
*LOADS
*RC o_UART_DATA_RX\[5\] 1.276e-04
*END

*R_NET o_UART_DATA_RX\[4\] 1.579e-02
*DRIVER o_UART_DATA_RX_reg_4_:Q
*CELL fd2qd1_hd
*C2_R1_C1 7.895e-03 8.080e-03 7.895e-03 
*LOADS
*RC o_UART_DATA_RX\[4\] 1.276e-04
*END

*R_NET o_UART_DATA_RX\[3\] 1.579e-02
*DRIVER o_UART_DATA_RX_reg_3_:Q
*CELL fd2qd1_hd
*C2_R1_C1 7.895e-03 8.080e-03 7.895e-03 
*LOADS
*RC o_UART_DATA_RX\[3\] 1.276e-04
*END

*R_NET o_UART_DATA_RX\[2\] 1.579e-02
*DRIVER o_UART_DATA_RX_reg_2_:Q
*CELL fd2qd1_hd
*C2_R1_C1 7.895e-03 8.080e-03 7.895e-03 
*LOADS
*RC o_UART_DATA_RX\[2\] 1.276e-04
*END

*R_NET o_UART_DATA_RX\[1\] 1.579e-02
*DRIVER o_UART_DATA_RX_reg_1_:Q
*CELL fd2qd1_hd
*C2_R1_C1 7.895e-03 8.080e-03 7.895e-03 
*LOADS
*RC o_UART_DATA_RX\[1\] 1.276e-04
*END

*R_NET o_UART_DATA_RX\[0\] 1.579e-02
*DRIVER o_UART_DATA_RX_reg_0_:Q
*CELL fd2qd1_hd
*C2_R1_C1 7.895e-03 8.080e-03 7.895e-03 
*LOADS
*RC o_UART_DATA_RX\[0\] 1.276e-04
*END

*R_NET i_UART_DATA_TX_VALID 3.944e-02
*DRIVER i_UART_DATA_TX_VALID
*CELL fd2qd1_hd
*C2_R1_C1 1.972e-02 2.126e-02 1.972e-02 
*LOADS
*RC U439:A 8.385e-04
*RC U438:A 8.385e-04
*RC U256:A 8.385e-04
*RC U255:A 8.385e-04
*END

*R_NET i_CORE_BUSY 4.995e-02
*DRIVER i_CORE_BUSY
*CELL NULL
*C2_R1_C1 2.497e-02 2.338e-02 2.497e-02 
*LOADS
*RC U76:B 1.168e-03
*RC U85:A 1.168e-03
*RC U424:B 1.168e-03
*RC U212:A 1.168e-03
*RC U100:B 1.168e-03
*RC U86:B 1.168e-03
*END

*R_NET i_UART_RXD 6.910e-03
*DRIVER i_UART_RXD
*CELL NULL
*C2_R1_C1 3.455e-03 8.080e-03 3.455e-03 
*LOADS
*RC uart_rx/r_Rx_Data_R_reg:D 5.583e-05
*END

*R_NET i_CLK 6.973e-02
*DRIVER i_CLK
*CELL fj4d1_hd
*C2_R1_C1 3.486e-02 0.000e+00 3.486e-02 
*LOADS
*RC clk_gate_r_uart_data_tx_shift_reg_7__0/latch:CK 0.000e+00
*RC clk_gate_r_uart_data_tx_valid_reg_0/latch:CK 0.000e+00
*RC clk_gate_o_UART_DATA_RX_reg_7__0/latch:CK 0.000e+00
*RC clk_gate_o_UART_DATA_RX_reg_15__0/latch:CK 0.000e+00
*RC uart_rx/clk_gate_r_Clock_Count_reg_7__0/latch:CK 0.000e+00
*RC uart_rx/async_rst_synchronizer/r_ff_reg:CK 0.000e+00
*RC uart_rx/async_rst_synchronizer/o_RST_reg:CK 0.000e+00
*RC uart_tx/clk_gate_r_Tx_Data_reg_7__0/latch:CK 0.000e+00
*RC uart_tx/clk_gate_r_Clock_Count_reg_6__0/latch:CK 0.000e+00
*RC uart_tx/async_rst_synchronizer/o_RST_reg:CK 0.000e+00
*RC uart_tx/async_rst_synchronizer/r_ff_reg:CK 0.000e+00
*RC uart_rx/r_Clock_Count_reg_0_:CK 0.000e+00
*RC uart_rx/r_SM_Main_reg_0_:CK 0.000e+00
*RC uart_rx/r_SM_Main_reg_1_:CK 0.000e+00
*RC uart_rx/r_Rx_DV_reg:CK 0.000e+00
*RC uart_rx/r_SM_Main_reg_2_:CK 0.000e+00
*RC uart_rx/r_Rx_Data_R_reg:CK 0.000e+00
*RC uart_rx/r_Rx_Data_reg:CK 0.000e+00
*RC uart_tx/r_SM_Main_reg_0_:CK 0.000e+00
*RC uart_tx/r_Tx_Done_reg:CK 0.000e+00
*RC uart_tx/r_SM_Main_reg_1_:CK 0.000e+00
*RC uart_tx/r_SM_Main_reg_2_:CK 0.000e+00
*RC async_rstn_synchronizer/r_ff_reg:CK 0.000e+00
*RC async_rstn_synchronizer/o_RSTN_reg:CK 0.000e+00
*RC r_pstate_reg_1_:CK 0.000e+00
*RC o_UART_DATA_TX_READY_reg:CK 0.000e+00
*RC r_pstate_reg_2_:CK 0.000e+00
*RC o_UART_DATA_RX_VALID_reg:CK 0.000e+00
*RC r_data_counter_reg_1_:CK 0.000e+00
*RC r_data_counter_reg_2_:CK 0.000e+00
*RC r_data_counter_reg_0_:CK 0.000e+00
*RC r_lstate_reg_0_:CK 0.000e+00
*RC r_lstate_reg_1_:CK 0.000e+00
*RC r_pstate_reg_0_:CK 0.000e+00
*RC async_rst_synchronizer/o_RST_reg:CK 0.000e+00
*RC async_rst_synchronizer/r_ff_reg:CK 0.000e+00
*END

*R_NET o_UART_DATA_TX_READY 2.956e-02
*DRIVER o_UART_DATA_TX_READY_reg:Q
*CELL fd2qd1_hd
*C2_R1_C1 1.478e-02 1.469e-02 1.478e-02 
*LOADS
*RC U63:D0 4.342e-04
*RC o_UART_DATA_TX_READY 4.342e-04
*END

*R_NET o_UART_DATA_RX_VALID 2.956e-02
*DRIVER o_UART_DATA_RX_VALID_reg:Q
*CELL fd2qd1_hd
*C2_R1_C1 1.478e-02 1.469e-02 1.478e-02 
*LOADS
*RC U64:D0 4.342e-04
*RC o_UART_DATA_RX_VALID 4.342e-04
*END

*R_NET o_UART_TXD 2.335e-02
*DRIVER uart_tx/o_Tx_Serial_reg:Q
*CELL fd1qd1_hd
*C2_R1_C1 1.168e-02 1.275e-02 1.168e-02 
*LOADS
*RC uart_tx/U82:D0 2.977e-04
*RC o_UART_TXD 2.977e-04
*END

*R_NET w_rst 1.038e-02
*DRIVER async_rst_synchronizer/o_RST_reg:Q
*CELL fd3qd1_hd
*C2_R1_C1 5.190e-03 7.370e-03 5.190e-03 
*LOADS
*RC U428:A 7.650e-05
*END

*R_NET w_rstn 2.813e-02
*DRIVER async_rstn_synchronizer/o_RSTN_reg:Q
*CELL fd2qd1_hd
*C2_R1_C1 1.406e-02 1.094e-02 1.406e-02 
*LOADS
*RC uart_rx/async_rst_synchronizer/r_ff_reg:SN 3.077e-04
*RC uart_rx/async_rst_synchronizer/o_RST_reg:SN 3.077e-04
*RC uart_tx/async_rst_synchronizer/o_RST_reg:SN 3.077e-04
*RC uart_tx/async_rst_synchronizer/r_ff_reg:SN 3.077e-04
*END

*R_NET r_uart_data_tx_valid 1.504e-02
*DRIVER r_uart_data_tx_valid_reg:Q
*CELL fd2qd1_hd
*C2_R1_C1 7.520e-03 9.460e-03 7.520e-03 
*LOADS
*RC uart_tx/U33:A 1.423e-04
*RC uart_tx/U9:B 1.423e-04
*RC uart_tx/U10:B 1.423e-04
*END

*R_NET w_uart_data_tx_done 2.440e-02
*DRIVER uart_tx/r_Tx_Done_reg:Q
*CELL fd2qd1_hd
*C2_R1_C1 1.220e-02 1.549e-02 1.220e-02 
*LOADS
*RC uart_tx/U5:D0 3.780e-04
*RC U3:B 3.780e-04
*RC U447:A 3.780e-04
*RC U271:B 3.780e-04
*RC U23:B 3.780e-04
*END

*R_NET w_uart_data_rx_valid 4.808e-02
*DRIVER uart_rx/r_Rx_DV_reg:Q
*CELL fd2qd1_hd
*C2_R1_C1 2.404e-02 2.090e-02 2.404e-02 
*LOADS
*RC uart_rx/U17:D0 1.005e-03
*RC U76:A 1.005e-03
*RC U440:A 1.005e-03
*RC U439:B 1.005e-03
*RC U427:A 1.005e-03
*RC U426:A 1.005e-03
*RC U425:B 1.005e-03
*RC U424:A 1.005e-03
*RC U100:D 1.005e-03
*END

*R_NET N34 1.513e-02
*DRIVER U442:Y
*CELL ivd1_hd
*C2_R1_C1 7.565e-03 9.460e-03 7.565e-03 
*LOADS
*RC U277:A 1.431e-04
*RC U264:A 1.431e-04
*RC U8:C 1.431e-04
*END

*R_NET N35 1.468e-02
*DRIVER U228:Y
*CELL ivd1_hd
*C2_R1_C1 7.340e-03 9.460e-03 7.340e-03 
*LOADS
*RC U71:D1 1.389e-04
*RC U265:B 1.389e-04
*RC U264:B 1.389e-04
*END

*R_NET N36 3.141e-02
*DRIVER U74:Y
*CELL ivd1_hd
*C2_R1_C1 1.571e-02 1.674e-02 1.571e-02 
*LOADS
*RC U2:B 5.258e-04
*RC U99:A 5.258e-04
*RC U102:A 5.258e-04
*RC U103:A 5.258e-04
*RC U432:B 5.258e-04
*RC U263:B 5.258e-04
*END

*R_NET N37 4.590e-03
*DRIVER U264:Y
*CELL ad2d1_hd
*C2_R1_C1 2.295e-03 7.370e-03 2.295e-03 
*LOADS
*RC U263:A 3.383e-05
*END

*R_NET N38 2.506e-02
*DRIVER U263:Y
*CELL ad2d1_hd
*C2_R1_C1 1.253e-02 1.549e-02 1.253e-02 
*LOADS
*RC U3:C 3.882e-04
*RC U272:A 3.882e-04
*RC U107:A 3.882e-04
*RC U100:A 3.882e-04
*RC U96:C 3.882e-04
*END

*R_NET N39 5.520e-03
*DRIVER U275:Y
*CELL or2d1_hd
*C2_R1_C1 2.760e-03 7.370e-03 2.760e-03 
*LOADS
*RC U432:A 4.068e-05
*END

*R_NET N42 5.520e-03
*DRIVER U265:Y
*CELL or2d1_hd
*C2_R1_C1 2.760e-03 7.370e-03 2.760e-03 
*LOADS
*RC U436:A 4.068e-05
*END

*R_NET N47 2.674e-02
*DRIVER U10:Y
*CELL scg12d1_hd
*C2_R1_C1 1.337e-02 1.549e-02 1.337e-02 
*LOADS
*RC U87:A 4.142e-04
*RC U441:A 4.142e-04
*RC U272:B 4.142e-04
*RC U108:A 4.142e-04
*RC U97:C 4.142e-04
*END

*R_NET N50 2.627e-02
*DRIVER U8:Y
*CELL nr3d1_hd
*C2_R1_C1 1.314e-02 1.549e-02 1.314e-02 
*LOADS
*RC U85:C 4.069e-04
*RC U441:B 4.069e-04
*RC U272:C 4.069e-04
*RC U108:C 4.069e-04
*RC U97:B 4.069e-04
*END

*R_NET N51 5.520e-03
*DRIVER U277:Y
*CELL or2d1_hd
*C2_R1_C1 2.760e-03 7.370e-03 2.760e-03 
*LOADS
*RC U2:A 4.068e-05
*END

*R_NET N54 5.190e-03
*DRIVER U252:Y
*CELL ad2d1_hd
*C2_R1_C1 2.595e-03 7.370e-03 2.595e-03 
*LOADS
*RC U279:B 3.825e-05
*END

*R_NET N60 5.830e-03
*DRIVER U255:Y
*CELL ad2d1_hd
*C2_R1_C1 2.915e-03 7.370e-03 2.915e-03 
*LOADS
*RC U86:A 4.297e-05
*END

*R_NET N62 1.387e-02
*DRIVER U426:Y
*CELL ivd1_hd
*C2_R1_C1 6.935e-03 9.460e-03 6.935e-03 
*LOADS
*RC U423:A 1.312e-04
*RC U255:B 1.312e-04
*RC U219:B 1.312e-04
*END

*R_NET N120 4.700e-03
*DRIVER U440:Y
*CELL or2d1_hd
*C2_R1_C1 2.350e-03 7.370e-03 2.350e-03 
*LOADS
*RC U85:B 3.464e-05
*END

*R_NET N121 9.130e-03
*DRIVER U273:Y
*CELL or2d1_hd
*C2_R1_C1 4.565e-03 9.100e-03 4.565e-03 
*LOADS
*RC U257:B 8.308e-05
*RC U16:B 8.308e-05
*END

*R_NET N122 4.510e-03
*DRIVER U257:Y
*CELL or2d1_hd
*C2_R1_C1 2.255e-03 7.370e-03 2.255e-03 
*LOADS
*RC U24:B 3.324e-05
*END

*R_NET N127 2.462e-02
*DRIVER uart_rx/r_Rx_Byte_reg_0_:Q
*CELL fd2qd1_hd
*C2_R1_C1 1.231e-02 1.549e-02 1.231e-02 
*LOADS
*RC uart_rx/U87:D0 3.814e-04
*RC o_UART_DATA_RX_reg_0_:D 3.814e-04
*RC o_UART_DATA_RX_reg_8_:D 3.814e-04
*RC U443:A 3.814e-04
*RC U241:A 3.814e-04
*END

*R_NET N128 2.932e-02
*DRIVER uart_rx/r_Rx_Byte_reg_1_:Q
*CELL fd2qd1_hd
*C2_R1_C1 1.466e-02 1.674e-02 1.466e-02 
*LOADS
*RC uart_rx/U90:D0 4.908e-04
*RC o_UART_DATA_RX_reg_1_:D 4.908e-04
*RC o_UART_DATA_RX_reg_9_:D 4.908e-04
*RC U274:A 4.908e-04
*RC U237:A 4.908e-04
*RC U227:A 4.908e-04
*END

*R_NET N129 3.337e-02
*DRIVER uart_rx/r_Rx_Byte_reg_2_:Q
*CELL fd2qd1_hd
*C2_R1_C1 1.669e-02 1.715e-02 1.669e-02 
*LOADS
*RC uart_rx/U93:D0 5.723e-04
*RC o_UART_DATA_RX_reg_2_:D 5.723e-04
*RC o_UART_DATA_RX_reg_10_:D 5.723e-04
*RC U262:A 5.723e-04
*RC U259:A 5.723e-04
*RC U238:A 5.723e-04
*RC U234:A 5.723e-04
*END

*R_NET N130 3.337e-02
*DRIVER uart_rx/r_Rx_Byte_reg_3_:Q
*CELL fd2qd1_hd
*C2_R1_C1 1.669e-02 1.715e-02 1.669e-02 
*LOADS
*RC uart_rx/U96:D0 5.723e-04
*RC o_UART_DATA_RX_reg_3_:D 5.723e-04
*RC o_UART_DATA_RX_reg_11_:D 5.723e-04
*RC U260:A 5.723e-04
*RC U239:A 5.723e-04
*RC U236:A 5.723e-04
*RC U223:A 5.723e-04
*END

*R_NET N131 2.932e-02
*DRIVER uart_rx/r_Rx_Byte_reg_4_:Q
*CELL fd2qd1_hd
*C2_R1_C1 1.466e-02 1.674e-02 1.466e-02 
*LOADS
*RC uart_rx/U99:D0 4.908e-04
*RC o_UART_DATA_RX_reg_4_:D 4.908e-04
*RC o_UART_DATA_RX_reg_12_:D 4.908e-04
*RC U240:A 4.908e-04
*RC U207:A 4.908e-04
*RC U206:A 4.908e-04
*END

*R_NET N132 2.932e-02
*DRIVER uart_rx/r_Rx_Byte_reg_5_:Q
*CELL fd2qd1_hd
*C2_R1_C1 1.466e-02 1.674e-02 1.466e-02 
*LOADS
*RC uart_rx/U102:D0 4.908e-04
*RC o_UART_DATA_RX_reg_5_:D 4.908e-04
*RC o_UART_DATA_RX_reg_13_:D 4.908e-04
*RC U225:A 4.908e-04
*RC U221:A 4.908e-04
*RC U202:A 4.908e-04
*END

*R_NET N133 2.408e-02
*DRIVER uart_rx/r_Rx_Byte_reg_6_:Q
*CELL fd2qd1_hd
*C2_R1_C1 1.204e-02 1.549e-02 1.204e-02 
*LOADS
*RC uart_rx/U105:D0 3.730e-04
*RC o_UART_DATA_RX_reg_6_:D 3.730e-04
*RC o_UART_DATA_RX_reg_14_:D 3.730e-04
*RC U226:A 3.730e-04
*RC U204:A 3.730e-04
*END

*R_NET N134 3.400e-02
*DRIVER uart_rx/r_Rx_Byte_reg_7_:Q
*CELL fd2qd1_hd
*C2_R1_C1 1.700e-02 1.715e-02 1.700e-02 
*LOADS
*RC uart_rx/U108:D0 5.831e-04
*RC o_UART_DATA_RX_reg_7_:D 5.831e-04
*RC o_UART_DATA_RX_reg_15_:D 5.831e-04
*RC U222:B 5.831e-04
*RC U211:B 5.831e-04
*RC U209:B 5.831e-04
*RC U205:A 5.831e-04
*END

*R_NET N194 5.750e-03
*DRIVER U278:Y
*CELL or2d1_hd
*C2_R1_C1 2.875e-03 7.370e-03 2.875e-03 
*LOADS
*RC U17:A 4.238e-05
*END

*R_NET N199 4.920e-03
*DRIVER add_x_2_U2:S
*CELL had1_hd
*C2_R1_C1 2.460e-03 7.370e-03 2.460e-03 
*LOADS
*RC U27:AN 3.626e-05
*END

*R_NET N200 4.920e-03
*DRIVER U412:Y
*CELL xo2d1_hd
*C2_R1_C1 2.460e-03 7.370e-03 2.460e-03 
*LOADS
*RC U26:AN 3.626e-05
*END

*R_NET N214 5.750e-03
*DRIVER U451:Y
*CELL ivd1_hd
*C2_R1_C1 2.875e-03 7.370e-03 2.875e-03 
*LOADS
*RC U97:A 4.238e-05
*END

*R_NET N215 1.504e-02
*DRIVER U447:Y
*CELL ivd1_hd
*C2_R1_C1 7.520e-03 9.460e-03 7.520e-03 
*LOADS
*RC U423:D 1.423e-04
*RC U96:B 1.423e-04
*RC U21:B 1.423e-04
*END

*R_NET N223 6.380e-03
*DRIVER U397:Y
*CELL clknd2d1_hd
*C2_R1_C1 3.190e-03 7.370e-03 3.190e-03 
*LOADS
*RC U63:S 4.702e-05
*END

*R_NET N225 6.380e-03
*DRIVER U395:Y
*CELL clknd2d1_hd
*C2_R1_C1 3.190e-03 7.370e-03 3.190e-03 
*LOADS
*RC U64:S 4.702e-05
*END

*R_NET N227 6.030e-03
*DRIVER U96:Y
*CELL scg17d1_hd
*C2_R1_C1 3.015e-03 7.370e-03 3.015e-03 
*LOADS
*RC clk_gate_r_uart_data_tx_valid_reg_0/latch:EN 4.444e-05
*END

*R_NET N228 4.680e-03
*DRIVER U95:Y
*CELL ad2d1_hd
*C2_R1_C1 2.340e-03 7.370e-03 2.340e-03 
*LOADS
*RC r_uart_data_tx_reg_0_:D 3.449e-05
*END

*R_NET N229 4.680e-03
*DRIVER U94:Y
*CELL ad2d1_hd
*C2_R1_C1 2.340e-03 7.370e-03 2.340e-03 
*LOADS
*RC r_uart_data_tx_reg_1_:D 3.449e-05
*END

*R_NET N230 4.680e-03
*DRIVER U93:Y
*CELL ad2d1_hd
*C2_R1_C1 2.340e-03 7.370e-03 2.340e-03 
*LOADS
*RC r_uart_data_tx_reg_2_:D 3.449e-05
*END

*R_NET N231 4.680e-03
*DRIVER U92:Y
*CELL ad2d1_hd
*C2_R1_C1 2.340e-03 7.370e-03 2.340e-03 
*LOADS
*RC r_uart_data_tx_reg_3_:D 3.449e-05
*END

*R_NET N232 4.680e-03
*DRIVER U91:Y
*CELL ad2d1_hd
*C2_R1_C1 2.340e-03 7.370e-03 2.340e-03 
*LOADS
*RC r_uart_data_tx_reg_4_:D 3.449e-05
*END

*R_NET N233 4.680e-03
*DRIVER U90:Y
*CELL ad2d1_hd
*C2_R1_C1 2.340e-03 7.370e-03 2.340e-03 
*LOADS
*RC r_uart_data_tx_reg_5_:D 3.449e-05
*END

*R_NET N234 4.680e-03
*DRIVER U89:Y
*CELL ad2d1_hd
*C2_R1_C1 2.340e-03 7.370e-03 2.340e-03 
*LOADS
*RC r_uart_data_tx_reg_6_:D 3.449e-05
*END

*R_NET N235 4.680e-03
*DRIVER U88:Y
*CELL ad2d1_hd
*C2_R1_C1 2.340e-03 7.370e-03 2.340e-03 
*LOADS
*RC r_uart_data_tx_reg_7_:D 3.449e-05
*END

*R_NET N236 6.030e-03
*DRIVER U3:Y
*CELL scg6d1_hd
*C2_R1_C1 3.015e-03 7.370e-03 3.015e-03 
*LOADS
*RC clk_gate_r_uart_data_tx_shift_reg_7__0/latch:EN 4.444e-05
*END

*R_NET N237 4.680e-03
*DRIVER U84:Y
*CELL ad2d1_hd
*C2_R1_C1 2.340e-03 7.370e-03 2.340e-03 
*LOADS
*RC r_uart_data_tx_shift_reg_0_:D 3.449e-05
*END

*R_NET N238 4.680e-03
*DRIVER U83:Y
*CELL ad2d1_hd
*C2_R1_C1 2.340e-03 7.370e-03 2.340e-03 
*LOADS
*RC r_uart_data_tx_shift_reg_1_:D 3.449e-05
*END

*R_NET N239 4.680e-03
*DRIVER U82:Y
*CELL ad2d1_hd
*C2_R1_C1 2.340e-03 7.370e-03 2.340e-03 
*LOADS
*RC r_uart_data_tx_shift_reg_2_:D 3.449e-05
*END

*R_NET N240 4.680e-03
*DRIVER U81:Y
*CELL ad2d1_hd
*C2_R1_C1 2.340e-03 7.370e-03 2.340e-03 
*LOADS
*RC r_uart_data_tx_shift_reg_3_:D 3.449e-05
*END

*R_NET N241 4.680e-03
*DRIVER U80:Y
*CELL ad2d1_hd
*C2_R1_C1 2.340e-03 7.370e-03 2.340e-03 
*LOADS
*RC r_uart_data_tx_shift_reg_4_:D 3.449e-05
*END

*R_NET N242 4.680e-03
*DRIVER U79:Y
*CELL ad2d1_hd
*C2_R1_C1 2.340e-03 7.370e-03 2.340e-03 
*LOADS
*RC r_uart_data_tx_shift_reg_5_:D 3.449e-05
*END

*R_NET N243 4.680e-03
*DRIVER U78:Y
*CELL ad2d1_hd
*C2_R1_C1 2.340e-03 7.370e-03 2.340e-03 
*LOADS
*RC r_uart_data_tx_shift_reg_6_:D 3.449e-05
*END

*R_NET N244 4.680e-03
*DRIVER U77:Y
*CELL ad2d1_hd
*C2_R1_C1 2.340e-03 7.370e-03 2.340e-03 
*LOADS