*SPEF "IEEE 1481-1999"
*DESIGN "uart_controller"
*DATE "Tue Jun  9 06:17:24 2020"
*VENDOR "SYNOPSYS INC"
*PROGRAM "Synopsys Design Compiler cmos"
*VERSION "F-2011.09-SP5-3"
*DESIGN_FLOW "SYNTHESIS"
*DIVIDER /
*DELIMITER :
*BUS_DELIMITER []
*T_UNIT 1.0 NS
*C_UNIT 1.0 PF
*R_UNIT 1.0 KOHM
*L_UNIT 1.0 HENRY

*PORTS

i_UART_DATA_TX\[55\] I *L 1.900e-03 *S 1.467e-01 1.666e-01 *D fd4qd1_hd 
i_UART_DATA_TX\[54\] I *L 1.900e-03 *S 1.467e-01 1.666e-01 *D fd4qd1_hd 
i_UART_DATA_TX\[53\] I *L 1.830e-03 *S 1.461e-01 1.660e-01 *D fd4qd1_hd 
i_UART_DATA_TX\[52\] I *L 0.000e+00 *S 0.000e+00 0.000e+00 
i_UART_DATA_TX\[51\] I *L 1.900e-03 *S 1.467e-01 1.666e-01 *D fd4qd1_hd 
i_UART_DATA_TX\[50\] I *L 1.900e-03 *S 1.467e-01 1.666e-01 *D fd4qd1_hd 
i_UART_DATA_TX\[49\] I *L 1.900e-03 *S 1.467e-01 1.666e-01 *D fd4qd1_hd 
i_UART_DATA_TX\[48\] I *L 1.900e-03 *S 1.467e-01 1.666e-01 *D fd4qd1_hd 
i_UART_DATA_TX\[47\] I *L 1.900e-03 *S 1.467e-01 1.666e-01 *D fd4qd1_hd 
i_UART_DATA_TX\[46\] I *L 1.900e-03 *S 1.467e-01 1.666e-01 *D fd4qd1_hd 
i_UART_DATA_TX\[45\] I *L 1.900e-03 *S 1.467e-01 1.666e-01 *D fd4qd1_hd 
i_UART_DATA_TX\[44\] I *L 1.900e-03 *S 1.467e-01 1.666e-01 *D fd4qd1_hd 
i_UART_DATA_TX\[43\] I *L 1.900e-03 *S 1.467e-01 1.666e-01 *D fd4qd1_hd 
i_UART_DATA_TX\[42\] I *L 1.900e-03 *S 1.467e-01 1.666e-01 *D fd4qd1_hd 
i_UART_DATA_TX\[41\] I *L 1.900e-03 *S 1.467e-01 1.666e-01 *D fd4qd1_hd 
i_UART_DATA_TX\[40\] I *L 1.900e-03 *S 1.467e-01 1.666e-01 *D fd4qd1_hd 
i_UART_DATA_TX\[39\] I *L 1.900e-03 *S 1.467e-01 1.666e-01 *D fd4qd1_hd 
i_UART_DATA_TX\[38\] I *L 1.900e-03 *S 1.467e-01 1.666e-01 *D fd4qd1_hd 
i_UART_DATA_TX\[37\] I *L 1.900e-03 *S 1.467e-01 1.666e-01 *D fd4qd1_hd 
i_UART_DATA_TX\[36\] I *L 1.900e-03 *S 1.467e-01 1.666e-01 *D fd4qd1_hd 
i_UART_DATA_TX\[35\] I *L 1.900e-03 *S 1.467e-01 1.666e-01 *D fd4qd1_hd 
i_UART_DATA_TX\[34\] I *L 1.900e-03 *S 1.467e-01 1.666e-01 *D fd4qd1_hd 
i_UART_DATA_TX\[33\] I *L 1.900e-03 *S 1.467e-01 1.666e-01 *D fd4qd1_hd 
i_UART_DATA_TX\[32\] I *L 1.900e-03 *S 1.467e-01 1.666e-01 *D fd4qd1_hd 
i_UART_DATA_TX\[31\] I *L 1.900e-03 *S 1.467e-01 1.666e-01 *D fd4qd1_hd 
i_UART_DATA_TX\[30\] I *L 1.900e-03 *S 1.467e-01 1.666e-01 *D fd4qd1_hd 
i_UART_DATA_TX\[29\] I *L 1.900e-03 *S 1.467e-01 1.666e-01 *D fd4qd1_hd 
i_UART_DATA_TX\[28\] I *L 1.900e-03 *S 1.467e-01 1.666e-01 *D fd4qd1_hd 
i_UART_DATA_TX\[27\] I *L 1.900e-03 *S 1.467e-01 1.666e-01 *D fd4qd1_hd 
i_UART_DATA_TX\[26\] I *L 1.900e-03 *S 1.467e-01 1.666e-01 *D fd4qd1_hd 
i_UART_DATA_TX\[25\] I *L 1.900e-03 *S 1.467e-01 1.666e-01 *D fd4qd1_hd 
i_UART_DATA_TX\[24\] I *L 1.900e-03 *S 1.467e-01 1.666e-01 *D fd4qd1_hd 
i_UART_DATA_TX\[23\] I *L 0.000e+00 *S 0.000e+00 0.000e+00 
i_UART_DATA_TX\[22\] I *L 0.000e+00 *S 0.000e+00 0.000e+00 
i_UART_DATA_TX\[21\] I *L 0.000e+00 *S 0.000e+00 0.000e+00 
i_UART_DATA_TX\[20\] I *L 0.000e+00 *S 0.000e+00 0.000e+00 
i_UART_DATA_TX\[19\] I *L 1.900e-03 *S 1.467e-01 1.666e-01 *D fd4qd1_hd 
i_UART_DATA_TX\[18\] I *L 1.900e-03 *S 1.467e-01 1.666e-01 *D fd4qd1_hd 
i_UART_DATA_TX\[17\] I *L 1.900e-03 *S 1.467e-01 1.666e-01 *D fd4qd1_hd 
i_UART_DATA_TX\[16\] I *L 1.900e-03 *S 1.467e-01 1.666e-01 *D fd4qd1_hd 
i_UART_DATA_TX\[15\] I *L 1.900e-03 *S 1.467e-01 1.666e-01 *D fd4qd1_hd 
i_UART_DATA_TX\[14\] I *L 1.900e-03 *S 1.467e-01 1.666e-01 *D fd4qd1_hd 
i_UART_DATA_TX\[13\] I *L 1.900e-03 *S 1.467e-01 1.666e-01 *D fd4qd1_hd 
i_UART_DATA_TX\[12\] I *L 1.900e-03 *S 1.467e-01 1.666e-01 *D fd4qd1_hd 
i_UART_DATA_TX\[11\] I *L 1.900e-03 *S 1.467e-01 1.666e-01 *D fd4qd1_hd 
i_UART_DATA_TX\[10\] I *L 1.900e-03 *S 1.467e-01 1.666e-01 *D fd4qd1_hd 
i_UART_DATA_TX\[9\] I *L 1.900e-03 *S 1.467e-01 1.666e-01 *D fd4qd1_hd 
i_UART_DATA_TX\[8\] I *L 1.900e-03 *S 1.467e-01 1.666e-01 *D fd4qd1_hd 
i_UART_DATA_TX\[7\] I *L 1.900e-03 *S 1.455e-01 1.655e-01 *D fd4qd1_hd 
i_UART_DATA_TX\[6\] I *L 0.000e+00 *S 0.000e+00 0.000e+00 
i_UART_DATA_TX\[5\] I *L 1.900e-03 *S 1.455e-01 1.655e-01 *D fd4qd1_hd 
i_UART_DATA_TX\[4\] I *L 1.900e-03 *S 1.455e-01 1.655e-01 *D fd4qd1_hd 
i_UART_DATA_TX\[3\] I *L 1.900e-03 *S 1.455e-01 1.655e-01 *D fd4qd1_hd 
i_UART_DATA_TX\[2\] I *L 0.000e+00 *S 0.000e+00 0.000e+00 
i_UART_DATA_TX\[1\] I *L 1.900e-03 *S 1.455e-01 1.655e-01 *D fd4qd1_hd 
i_UART_DATA_TX\[0\] I *L 1.900e-03 *S 1.455e-01 1.655e-01 *D fd4qd1_hd 
i_UART_DATA_TX_VALID I *L 1.900e-03 *S 3.487e-01 3.346e-01 *D fd4qd1_hd 
o_UART_DATA_TX_READY O *L 1.035e-02 *S 2.560e-01 2.823e-01 
o_UART_DATA_RX\[15\] O *L 1.035e-02 *S 1.440e-01 1.837e-01 
o_UART_DATA_RX\[14\] O *L 1.035e-02 *S 1.440e-01 1.837e-01 
o_UART_DATA_RX\[13\] O *L 1.035e-02 *S 1.440e-01 1.837e-01 
o_UART_DATA_RX\[12\] O *L 1.035e-02 *S 1.440e-01 1.837e-01 
o_UART_DATA_RX\[11\] O *L 1.035e-02 *S 1.440e-01 1.837e-01 
o_UART_DATA_RX\[10\] O *L 1.035e-02 *S 1.440e-01 1.837e-01 
o_UART_DATA_RX\[9\] O *L 1.035e-02 *S 1.440e-01 1.837e-01 
o_UART_DATA_RX\[8\] O *L 1.035e-02 *S 1.440e-01 1.837e-01 
o_UART_DATA_RX\[7\] O *L 1.035e-02 *S 1.440e-01 1.837e-01 
o_UART_DATA_RX\[6\] O *L 1.035e-02 *S 1.440e-01 1.837e-01 
o_UART_DATA_RX\[5\] O *L 1.035e-02 *S 1.440e-01 1.837e-01 
o_UART_DATA_RX\[4\] O *L 1.035e-02 *S 1.440e-01 1.837e-01 
o_UART_DATA_RX\[3\] O *L 1.035e-02 *S 1.440e-01 1.837e-01 
o_UART_DATA_RX\[2\] O *L 1.035e-02 *S 1.440e-01 1.837e-01 
o_UART_DATA_RX\[1\] O *L 1.035e-02 *S 1.440e-01 1.837e-01 
o_UART_DATA_RX\[0\] O *L 1.035e-02 *S 1.440e-01 1.837e-01 
o_UART_DATA_RX_VALID O *L 1.035e-02 *S 2.560e-01 2.823e-01 
i_CORE_BUSY I *L 0.000e+00 *S 0.000e+00 0.000e+00 
i_UART_RXD I *L 0.000e+00 *S 0.000e+00 0.000e+00 
o_UART_TXD O *L 1.035e-02 *S 2.048e-01 1.629e-01 
i_CLK I *L 0.000e+00 *S 0.000e+00 0.000e+00 *D ft2d1_hd 
i_RST I *L 0.000e+00 *S 0.000e+00 0.000e+00 *D ivd8_hd 

*R_NET i_UART_DATA_TX\[55\] 1.458e-02
*DRIVER i_UART_DATA_TX\[55\]
*CELL fd4qd1_hd
*C2_R1_C1 7.290e-03 1.275e-02 7.290e-03 
*LOADS
*RC U415:A 1.859e-04
*END

*R_NET i_UART_DATA_TX\[54\] 1.458e-02
*DRIVER i_UART_DATA_TX\[54\]
*CELL fd4qd1_hd
*C2_R1_C1 7.290e-03 1.275e-02 7.290e-03 
*LOADS
*RC U414:A 1.859e-04
*END

*R_NET i_UART_DATA_TX\[53\] 1.451e-02
*DRIVER i_UART_DATA_TX\[53\]
*CELL fd4qd1_hd
*C2_R1_C1 7.255e-03 1.275e-02 7.255e-03 
*LOADS
*RC U413:A 1.850e-04
*END

*R_NET i_UART_DATA_TX\[52\] 7.020e-03
*DRIVER i_UART_DATA_TX\[52\]
*CELL NULL
*C2_R1_C1 3.510e-03 8.080e-03 3.510e-03 
*LOADS
*RC U420:A 5.672e-05
*END

*R_NET i_UART_DATA_TX\[51\] 1.458e-02
*DRIVER i_UART_DATA_TX\[51\]
*CELL fd4qd1_hd
*C2_R1_C1 7.290e-03 1.275e-02 7.290e-03 
*LOADS
*RC U412:A 1.859e-04
*END

*R_NET i_UART_DATA_TX\[50\] 1.458e-02
*DRIVER i_UART_DATA_TX\[50\]
*CELL fd4qd1_hd
*C2_R1_C1 7.290e-03 1.275e-02 7.290e-03 
*LOADS
*RC U411:A 1.859e-04
*END

*R_NET i_UART_DATA_TX\[49\] 1.458e-02
*DRIVER i_UART_DATA_TX\[49\]
*CELL fd4qd1_hd
*C2_R1_C1 7.290e-03 1.275e-02 7.290e-03 
*LOADS
*RC U410:A 1.859e-04
*END

*R_NET i_UART_DATA_TX\[48\] 1.458e-02
*DRIVER i_UART_DATA_TX\[48\]
*CELL fd4qd1_hd
*C2_R1_C1 7.290e-03 1.275e-02 7.290e-03 
*LOADS
*RC U409:A 1.859e-04
*END

*R_NET i_UART_DATA_TX\[47\] 1.458e-02
*DRIVER i_UART_DATA_TX\[47\]
*CELL fd4qd1_hd
*C2_R1_C1 7.290e-03 1.275e-02 7.290e-03 
*LOADS
*RC U408:A 1.859e-04
*END

*R_NET i_UART_DATA_TX\[46\] 1.458e-02
*DRIVER i_UART_DATA_TX\[46\]
*CELL fd4qd1_hd
*C2_R1_C1 7.290e-03 1.275e-02 7.290e-03 
*LOADS
*RC U407:A 1.859e-04
*END

*R_NET i_UART_DATA_TX\[45\] 1.458e-02
*DRIVER i_UART_DATA_TX\[45\]
*CELL fd4qd1_hd
*C2_R1_C1 7.290e-03 1.275e-02 7.290e-03 
*LOADS
*RC U406:A 1.859e-04
*END

*R_NET i_UART_DATA_TX\[44\] 1.458e-02
*DRIVER i_UART_DATA_TX\[44\]
*CELL fd4qd1_hd
*C2_R1_C1 7.290e-03 1.275e-02 7.290e-03 
*LOADS
*RC U405:A 1.859e-04
*END

*R_NET i_UART_DATA_TX\[43\] 1.458e-02
*DRIVER i_UART_DATA_TX\[43\]
*CELL fd4qd1_hd
*C2_R1_C1 7.290e-03 1.275e-02 7.290e-03 
*LOADS
*RC U404:A 1.859e-04
*END

*R_NET i_UART_DATA_TX\[42\] 1.458e-02
*DRIVER i_UART_DATA_TX\[42\]
*CELL fd4qd1_hd
*C2_R1_C1 7.290e-03 1.275e-02 7.290e-03 
*LOADS
*RC U403:A 1.859e-04
*END

*R_NET i_UART_DATA_TX\[41\] 1.458e-02
*DRIVER i_UART_DATA_TX\[41\]
*CELL fd4qd1_hd
*C2_R1_C1 7.290e-03 1.275e-02 7.290e-03 
*LOADS
*RC U402:A 1.859e-04
*END

*R_NET i_UART_DATA_TX\[40\] 1.458e-02
*DRIVER i_UART_DATA_TX\[40\]
*CELL fd4qd1_hd
*C2_R1_C1 7.290e-03 1.275e-02 7.290e-03 
*LOADS
*RC U401:A 1.859e-04
*END

*R_NET i_UART_DATA_TX\[39\] 1.458e-02
*DRIVER i_UART_DATA_TX\[39\]
*CELL fd4qd1_hd
*C2_R1_C1 7.290e-03 1.275e-02 7.290e-03 
*LOADS
*RC U400:A 1.859e-04
*END

*R_NET i_UART_DATA_TX\[38\] 1.458e-02
*DRIVER i_UART_DATA_TX\[38\]
*CELL fd4qd1_hd
*C2_R1_C1 7.290e-03 1.275e-02 7.290e-03 
*LOADS
*RC U399:A 1.859e-04
*END

*R_NET i_UART_DATA_TX\[37\] 1.458e-02
*DRIVER i_UART_DATA_TX\[37\]
*CELL fd4qd1_hd
*C2_R1_C1 7.290e-03 1.275e-02 7.290e-03 
*LOADS
*RC U398:A 1.859e-04
*END

*R_NET i_UART_DATA_TX\[36\] 1.458e-02
*DRIVER i_UART_DATA_TX\[36\]
*CELL fd4qd1_hd
*C2_R1_C1 7.290e-03 1.275e-02 7.290e-03 
*LOADS
*RC U397:A 1.859e-04
*END

*R_NET i_UART_DATA_TX\[35\] 1.458e-02
*DRIVER i_UART_DATA_TX\[35\]
*CELL fd4qd1_hd
*C2_R1_C1 7.290e-03 1.275e-02 7.290e-03 
*LOADS
*RC U396:A 1.859e-04
*END

*R_NET i_UART_DATA_TX\[34\] 1.458e-02
*DRIVER i_UART_DATA_TX\[34\]
*CELL fd4qd1_hd
*C2_R1_C1 7.290e-03 1.275e-02 7.290e-03 
*LOADS
*RC U395:A 1.859e-04
*END

*R_NET i_UART_DATA_TX\[33\] 1.458e-02
*DRIVER i_UART_DATA_TX\[33\]
*CELL fd4qd1_hd
*C2_R1_C1 7.290e-03 1.275e-02 7.290e-03 
*LOADS
*RC U394:A 1.859e-04
*END

*R_NET i_UART_DATA_TX\[32\] 1.458e-02
*DRIVER i_UART_DATA_TX\[32\]
*CELL fd4qd1_hd
*C2_R1_C1 7.290e-03 1.275e-02 7.290e-03 
*LOADS
*RC U393:A 1.859e-04
*END

*R_NET i_UART_DATA_TX\[31\] 1.458e-02
*DRIVER i_UART_DATA_TX\[31\]
*CELL fd4qd1_hd
*C2_R1_C1 7.290e-03 1.275e-02 7.290e-03 
*LOADS
*RC U392:A 1.859e-04
*END

*R_NET i_UART_DATA_TX\[30\] 1.458e-02
*DRIVER i_UART_DATA_TX\[30\]
*CELL fd4qd1_hd
*C2_R1_C1 7.290e-03 1.275e-02 7.290e-03 
*LOADS
*RC U391:A 1.859e-04
*END

*R_NET i_UART_DATA_TX\[29\] 1.458e-02
*DRIVER i_UART_DATA_TX\[29\]
*CELL fd4qd1_hd
*C2_R1_C1 7.290e-03 1.275e-02 7.290e-03 
*LOADS
*RC U390:A 1.859e-04
*END

*R_NET i_UART_DATA_TX\[28\] 1.458e-02
*DRIVER i_UART_DATA_TX\[28\]
*CELL fd4qd1_hd
*C2_R1_C1 7.290e-03 1.275e-02 7.290e-03 
*LOADS
*RC U389:A 1.859e-04
*END

*R_NET i_UART_DATA_TX\[27\] 1.458e-02
*DRIVER i_UART_DATA_TX\[27\]
*CELL fd4qd1_hd
*C2_R1_C1 7.290e-03 1.275e-02 7.290e-03 
*LOADS
*RC U388:A 1.859e-04
*END

*R_NET i_UART_DATA_TX\[26\] 1.458e-02
*DRIVER i_UART_DATA_TX\[26\]
*CELL fd4qd1_hd
*C2_R1_C1 7.290e-03 1.275e-02 7.290e-03 
*LOADS
*RC U387:A 1.859e-04
*END

*R_NET i_UART_DATA_TX\[25\] 1.458e-02
*DRIVER i_UART_DATA_TX\[25\]
*CELL fd4qd1_hd
*C2_R1_C1 7.290e-03 1.275e-02 7.290e-03 
*LOADS
*RC U386:A 1.859e-04
*END

*R_NET i_UART_DATA_TX\[24\] 1.458e-02
*DRIVER i_UART_DATA_TX\[24\]
*CELL fd4qd1_hd
*C2_R1_C1 7.290e-03 1.275e-02 7.290e-03 
*LOADS
*RC U385:A 1.859e-04
*END

*R_NET i_UART_DATA_TX\[23\] 7.020e-03
*DRIVER i_UART_DATA_TX\[23\]
*CELL NULL
*C2_R1_C1 3.510e-03 8.080e-03 3.510e-03 
*LOADS
*RC U419:A 5.672e-05
*END

*R_NET i_UART_DATA_TX\[22\] 7.020e-03
*DRIVER i_UART_DATA_TX\[22\]
*CELL NULL
*C2_R1_C1 3.510e-03 8.080e-03 3.510e-03 
*LOADS
*RC U418:A 5.672e-05
*END

*R_NET i_UART_DATA_TX\[21\] 7.020e-03
*DRIVER i_UART_DATA_TX\[21\]
*CELL NULL
*C2_R1_C1 3.510e-03 8.080e-03 3.510e-03 
*LOADS
*RC U417:A 5.672e-05
*END

*R_NET i_UART_DATA_TX\[20\] 7.020e-03
*DRIVER i_UART_DATA_TX\[20\]
*CELL NULL
*C2_R1_C1 3.510e-03 8.080e-03 3.510e-03 
*LOADS
*RC U416:A 5.672e-05
*END

*R_NET i_UART_DATA_TX\[19\] 1.458e-02
*DRIVER i_UART_DATA_TX\[19\]
*CELL fd4qd1_hd
*C2_R1_C1 7.290e-03 1.275e-02 7.290e-03 
*LOADS
*RC U384:A 1.859e-04
*END

*R_NET i_UART_DATA_TX\[18\] 1.458e-02
*DRIVER i_UART_DATA_TX\[18\]
*CELL fd4qd1_hd
*C2_R1_C1 7.290e-03 1.275e-02 7.290e-03 
*LOADS
*RC U383:A 1.859e-04
*END

*R_NET i_UART_DATA_TX\[17\] 1.458e-02
*DRIVER i_UART_DATA_TX\[17\]
*CELL fd4qd1_hd
*C2_R1_C1 7.290e-03 1.275e-02 7.290e-03 
*LOADS
*RC U382:A 1.859e-04
*END

*R_NET i_UART_DATA_TX\[16\] 1.458e-02
*DRIVER i_UART_DATA_TX\[16\]
*CELL fd4qd1_hd
*C2_R1_C1 7.290e-03 1.275e-02 7.290e-03 
*LOADS
*RC U381:A 1.859e-04
*END

*R_NET i_UART_DATA_TX\[15\] 1.458e-02
*DRIVER i_UART_DATA_TX\[15\]
*CELL fd4qd1_hd
*C2_R1_C1 7.290e-03 1.275e-02 7.290e-03 
*LOADS
*RC U380:A 1.859e-04
*END

*R_NET i_UART_DATA_TX\[14\] 1.458e-02
*DRIVER i_UART_DATA_TX\[14\]
*CELL fd4qd1_hd
*C2_R1_C1 7.290e-03 1.275e-02 7.290e-03 
*LOADS
*RC U379:A 1.859e-04
*END

*R_NET i_UART_DATA_TX\[13\] 1.458e-02
*DRIVER i_UART_DATA_TX\[13\]
*CELL fd4qd1_hd
*C2_R1_C1 7.290e-03 1.275e-02 7.290e-03 
*LOADS
*RC U378:A 1.859e-04
*END

*R_NET i_UART_DATA_TX\[12\] 1.458e-02
*DRIVER i_UART_DATA_TX\[12\]
*CELL fd4qd1_hd
*C2_R1_C1 7.290e-03 1.275e-02 7.290e-03 
*LOADS
*RC U377:A 1.859e-04
*END

*R_NET i_UART_DATA_TX\[11\] 1.458e-02
*DRIVER i_UART_DATA_TX\[11\]
*CELL fd4qd1_hd
*C2_R1_C1 7.290e-03 1.275e-02 7.290e-03 
*LOADS
*RC U376:A 1.859e-04
*END

*R_NET i_UART_DATA_TX\[10\] 1.458e-02
*DRIVER i_UART_DATA_TX\[10\]
*CELL fd4qd1_hd
*C2_R1_C1 7.290e-03 1.275e-02 7.290e-03 
*LOADS
*RC U375:A 1.859e-04
*END

*R_NET i_UART_DATA_TX\[9\] 1.458e-02
*DRIVER i_UART_DATA_TX\[9\]
*CELL fd4qd1_hd
*C2_R1_C1 7.290e-03 1.275e-02 7.290e-03 
*LOADS
*RC U374:A 1.859e-04
*END

*R_NET i_UART_DATA_TX\[8\] 1.458e-02
*DRIVER i_UART_DATA_TX\[8\]
*CELL fd4qd1_hd
*C2_R1_C1 7.290e-03 1.275e-02 7.290e-03 
*LOADS
*RC U373:A 1.859e-04
*END

*R_NET i_UART_DATA_TX\[7\] 1.444e-02
*DRIVER i_UART_DATA_TX\[7\]
*CELL fd4qd1_hd
*C2_R1_C1 7.220e-03 1.275e-02 7.220e-03 
*LOADS
*RC U167:A 1.841e-04
*END

*R_NET i_UART_DATA_TX\[6\] 6.880e-03
*DRIVER i_UART_DATA_TX\[6\]
*CELL NULL
*C2_R1_C1 3.440e-03 8.080e-03 3.440e-03 
*LOADS
*RC U168:A 5.559e-05
*END

*R_NET i_UART_DATA_TX\[5\] 1.444e-02
*DRIVER i_UART_DATA_TX\[5\]
*CELL fd4qd1_hd
*C2_R1_C1 7.220e-03 1.275e-02 7.220e-03 
*LOADS
*RC U169:A 1.841e-04
*END

*R_NET i_UART_DATA_TX\[4\] 1.444e-02
*DRIVER i_UART_DATA_TX\[4\]
*CELL fd4qd1_hd
*C2_R1_C1 7.220e-03 1.275e-02 7.220e-03 
*LOADS
*RC U170:A 1.841e-04
*END

*R_NET i_UART_DATA_TX\[3\] 1.444e-02
*DRIVER i_UART_DATA_TX\[3\]
*CELL fd4qd1_hd
*C2_R1_C1 7.220e-03 1.275e-02 7.220e-03 
*LOADS
*RC U171:A 1.841e-04
*END

*R_NET i_UART_DATA_TX\[2\] 6.880e-03
*DRIVER i_UART_DATA_TX\[2\]
*CELL NULL
*C2_R1_C1 3.440e-03 8.080e-03 3.440e-03 
*LOADS
*RC U172:A 5.559e-05
*END

*R_NET i_UART_DATA_TX\[1\] 1.444e-02
*DRIVER i_UART_DATA_TX\[1\]
*CELL fd4qd1_hd
*C2_R1_C1 7.220e-03 1.275e-02 7.220e-03 
*LOADS
*RC U173:A 1.841e-04
*END

*R_NET i_UART_DATA_TX\[0\] 1.444e-02
*DRIVER i_UART_DATA_TX\[0\]
*CELL fd4qd1_hd
*C2_R1_C1 7.220e-03 1.275e-02 7.220e-03 
*LOADS
*RC U174:A 1.841e-04
*END

*R_NET o_UART_DATA_RX\[15\] 1.579e-02
*DRIVER o_UART_DATA_RX_reg_15_:Q
*CELL fd2qd1_hd
*C2_R1_C1 7.895e-03 8.080e-03 7.895e-03 
*LOADS
*RC o_UART_DATA_RX\[15\] 1.276e-04
*END

*R_NET o_UART_DATA_RX\[14\] 1.579e-02
*DRIVER o_UART_DATA_RX_reg_14_:Q
*CELL fd2qd1_hd
*C2_R1_C1 7.895e-03 8.080e-03 7.895e-03 
*LOADS
*RC o_UART_DATA_RX\[14\] 1.276e-04
*END

*R_NET o_UART_DATA_RX\[13\] 1.579e-02
*DRIVER o_UART_DATA_RX_reg_13_:Q
*CELL fd2qd1_hd
*C2_R1_C1 7.895e-03 8.080e-03 7.895e-03 
*LOADS
*RC o_UART_DATA_RX\[13\] 1.276e-04
*END

*R_NET o_UART_DATA_RX\[12\] 1.579e-02
*DRIVER o_UART_DATA_RX_reg_12_:Q
*CELL fd2qd1_hd
*C2_R1_C1 7.895e-03 8.080e-03 7.895e-03 
*LOADS
*RC o_UART_DATA_RX\[12\] 1.276e-04
*END

*R_NET o_UART_DATA_RX\[11\] 1.579e-02
*DRIVER o_UART_DATA_RX_reg_11_:Q
*CELL fd2qd1_hd
*C2_R1_C1 7.895e-03 8.080e-03 7.895e-03 
*LOADS
*RC o_UART_DATA_RX\[11\] 1.276e-04
*END

*R_NET o_UART_DATA_RX\[10\] 1.579e-02
*DRIVER o_UART_DATA_RX_reg_10_:Q
*CELL fd2qd1_hd
*C2_R1_C1 7.895e-03 8.080e-03 7.895e-03 
*LOADS
*RC o_UART_DATA_RX\[10\] 1.276e-04
*END

*R_NET o_UART_DATA_RX\[9\] 1.579e-02
*DRIVER o_UART_DATA_RX_reg_9_:Q
*CELL fd2qd1_hd
*C2_R1_C1 7.895e-03 8.080e-03 7.895e-03 
*LOADS
*RC o_UART_DATA_RX\[9\] 1.276e-04
*END

*R_NET o_UART_DATA_RX\[8\] 1.579e-02
*DRIVER o_UART_DATA_RX_reg_8_:Q
*CELL fd2qd1_hd
*C2_R1_C1 7.895e-03 8.080e-03 7.895e-03 
*LOADS
*RC o_UART_DATA_RX\[8\] 1.276e-04
*END

*R_NET o_UART_DATA_RX\[7\] 1.579e-02
*DRIVER o_UART_DATA_RX_reg_7_:Q
*CELL fd2qd1_hd
*C2_R1_C1 7.895e-03 8.080e-03 7.895e-03 
*LOADS
*RC o_UART_DATA_RX\[7\] 1.276e-04
*END

*R_NET o_UART_DATA_RX\[6\] 1.579e-02
*DRIVER o_UART_DATA_RX_reg_6_:Q
*CELL fd2qd1_hd
*C2_R1_C1 7.895e-03 8.080e-03 7.895e-03 
*LOADS
*RC o_UART_DATA_RX\[6\] 1.276e-04
*END

*R_NET o_UART_DATA_RX\[5\] 1.579e-02
*DRIVER o_UART_DATA_RX_reg_5_:Q
*CELL fd2qd1_hd
*C2_R1_C1 7.895e-03 8.080e-03 7.895e-03 
*LOADS
*RC o_UART_DATA_RX\[5\] 1.276e-04
*END

*R_NET o_UART_DATA_RX\[4\] 1.579e-02
*DRIVER o_UART_DATA_RX_reg_4_:Q
*CELL fd2qd1_hd
*C2_R1_C1 7.895e-03 8.080e-03 7.895e-03 
*LOADS
*RC o_UART_DATA_RX\[4\] 1.276e-04
*END

*R_NET o_UART_DATA_RX\[3\] 1.579e-02
*DRIVER o_UART_DATA_RX_reg_3_:Q
*CELL fd2qd1_hd
*C2_R1_C1 7.895e-03 8.080e-03 7.895e-03 
*LOADS
*RC o_UART_DATA_RX\[3\] 1.276e-04
*END

*R_NET o_UART_DATA_RX\[2\] 1.579e-02
*DRIVER o_UART_DATA_RX_reg_2_:Q
*CELL fd2qd1_hd
*C2_R1_C1 7.895e-03 8.080e-03 7.895e-03 
*LOADS
*RC o_UART_DATA_RX\[2\] 1.276e-04
*END

*R_NET o_UART_DATA_RX\[1\] 1.579e-02
*DRIVER o_UART_DATA_RX_reg_1_:Q
*CELL fd2qd1_hd
*C2_R1_C1 7.895e-03 8.080e-03 7.895e-03 
*LOADS
*RC o_UART_DATA_RX\[1\] 1.276e-04
*END

*R_NET o_UART_DATA_RX\[0\] 1.579e-02
*DRIVER o_UART_DATA_RX_reg_0_:Q
*CELL fd2qd1_hd
*C2_R1_C1 7.895e-03 8.080e-03 7.895e-03 
*LOADS
*RC o_UART_DATA_RX\[0\] 1.276e-04
*END

*R_NET i_UART_DATA_TX_VALID 3.944e-02
*DRIVER i_UART_DATA_TX_VALID
*CELL fd4qd1_hd
*C2_R1_C1 1.972e-02 2.126e-02 1.972e-02 
*LOADS
*RC U625:A 8.385e-04
*RC U623:A 8.385e-04
*RC U347:A 8.385e-04
*RC U346:A 8.385e-04
*END

*R_NET i_CORE_BUSY 4.185e-02
*DRIVER i_CORE_BUSY
*CELL NULL
*C2_R1_C1 2.093e-02 2.126e-02 2.093e-02 
*LOADS
*RC U515:B 8.897e-04
*RC U302:A 8.897e-04
*RC U195:A 8.897e-04
*RC U190:B 8.897e-04
*RC U176:B 8.897e-04
*END

*R_NET i_UART_RXD 6.910e-03
*DRIVER i_UART_RXD
*CELL NULL
*C2_R1_C1 3.455e-03 8.080e-03 3.455e-03 
*LOADS
*RC uart_rx/r_Rx_Data_R_reg:D 5.583e-05
*END

*R_NET i_CLK 4.102e-02
*DRIVER i_CLK
*CELL ft2d1_hd
*C2_R1_C1 2.051e-02 0.000e+00 2.051e-02 
*LOADS
*RC clk_gate_r_lstate_reg_1_/latch:CK 0.000e+00
*RC clk_gate_o_UART_DATA_RX_reg_15_/latch:CK 0.000e+00
*RC clk_gate_o_UART_DATA_RX_reg_7_/latch:CK 0.000e+00
*RC clk_gate_r_uart_data_tx_valid_reg/latch:CK 0.000e+00
*RC clk_gate_r_uart_data_tx_shift_reg_55_/latch:CK 0.000e+00
*RC uart_rx/clk_gate_r_Clock_Count_reg_7_/latch:CK 0.000e+00
*RC uart_tx/clk_gate_r_Clock_Count_reg_6_/latch:CK 0.000e+00
*RC uart_tx/clk_gate_r_Tx_Data_reg_7_/latch:CK 0.000e+00
*RC uart_rx/r_SM_Main_reg_0_:CK 0.000e+00
*RC uart_rx/r_Rx_Data_R_reg:CK 0.000e+00
*RC uart_rx/r_Clock_Count_reg_0_:CK 0.000e+00
*RC uart_rx/r_SM_Main_reg_1_:CK 0.000e+00
*RC uart_rx/r_Rx_DV_reg:CK 0.000e+00
*RC uart_rx/r_SM_Main_reg_2_:CK 0.000e+00
*RC uart_rx/r_Rx_Data_reg:CK 0.000e+00
*RC r_pstate_reg_1_:CK 0.000e+00
*RC r_pstate_reg_0_:CK 0.000e+00
*RC r_pstate_reg_2_:CK 0.000e+00
*RC uart_tx/r_Tx_Done_reg:CK 0.000e+00
*RC uart_tx/r_SM_Main_reg_1_:CK 0.000e+00
*RC uart_tx/r_SM_Main_reg_2_:CK 0.000e+00
*RC uart_tx/r_SM_Main_reg_0_:CK 0.000e+00
*END

*R_NET o_UART_DATA_TX_READY 2.956e-02
*DRIVER o_UART_DATA_TX_READY_reg:Q
*CELL fd2qd1_hd
*C2_R1_C1 1.478e-02 1.469e-02 1.478e-02 
*LOADS
*RC U496:D0 4.342e-04
*RC o_UART_DATA_TX_READY 4.342e-04
*END

*R_NET o_UART_DATA_RX_VALID 2.956e-02
*DRIVER o_UART_DATA_RX_VALID_reg:Q
*CELL fd2qd1_hd
*C2_R1_C1 1.478e-02 1.469e-02 1.478e-02 
*LOADS
*RC U499:D0 4.342e-04
*RC o_UART_DATA_RX_VALID 4.342e-04
*END

*R_NET o_UART_TXD 2.335e-02
*DRIVER uart_tx/o_Tx_Serial_reg:Q
*CELL fd1qd1_hd
*C2_R1_C1 1.168e-02 1.275e-02 1.168e-02 
*LOADS
*RC uart_tx/U104:D0 2.977e-04
*RC o_UART_TXD 2.977e-04
*END

*R_NET r_uart_data_tx_valid 4.740e-03
*DRIVER r_uart_data_tx_valid_reg:Q
*CELL fd2qd1_hd
*C2_R1_C1 2.370e-03 7.370e-03 2.370e-03 
*LOADS
*RC uart_tx/U33:B 3.493e-05
*END

*R_NET w_uart_data_tx_done 2.440e-02
*DRIVER uart_tx/r_Tx_Done_reg:Q
*CELL fd2qd1_hd
*C2_R1_C1 1.220e-02 1.549e-02 1.220e-02 
*LOADS
*RC uart_tx/U92:D0 3.780e-04
*RC U372:B 3.780e-04
*RC U624:A 3.780e-04
*RC U354:B 3.780e-04
*RC U113:B 3.780e-04
*END

*R_NET w_uart_data_rx_valid 4.410e-02
*DRIVER uart_rx/r_Rx_DV_reg:Q
*CELL fd2qd1_hd
*C2_R1_C1 2.205e-02 2.066e-02 2.205e-02 
*LOADS
*RC uart_rx/U134:D0 9.111e-04
*RC U628:A 9.111e-04
*RC U623:B 9.111e-04
*RC U518:A 9.111e-04
*RC U517:A 9.111e-04
*RC U516:B 9.111e-04
*RC U515:A 9.111e-04
*RC U190:D 9.111e-04
*END

*R_NET N34 2.105e-02
*DRIVER U618:Y
*CELL ivd1_hd
*C2_R1_C1 1.052e-02 1.094e-02 1.052e-02 
*LOADS
*RC U367:D1 2.303e-04
*RC U368:A 2.303e-04
*RC U357:A 2.303e-04
*RC U8:C 2.303e-04
*END

*R_NET N35 1.464e-02
*DRIVER U314:Y
*CELL ivd1_hd
*C2_R1_C1 7.320e-03 9.460e-03 7.320e-03 
*LOADS
*RC U367:D0 1.385e-04
*RC U357:B 1.385e-04
*RC U348:B 1.385e-04
*END

*R_NET N36 3.141e-02
*DRIVER U421:Y
*CELL ivd1_hd
*C2_R1_C1 1.571e-02 1.674e-02 1.571e-02 
*LOADS
*RC U345:B 5.258e-04
*RC U422:A 5.258e-04
*RC U423:A 5.258e-04
*RC U424:A 5.258e-04
*RC U612:B 5.258e-04
*RC U356:B 5.258e-04
*END

*R_NET N37 4.590e-03
*DRIVER U357:Y
*CELL ad2d1_hd
*C2_R1_C1 2.295e-03 7.370e-03 2.295e-03 
*LOADS
*RC U356:A 3.383e-05
*END

*R_NET N38 3.475e-02
*DRIVER U356:Y
*CELL ad2d1_hd
*C2_R1_C1 1.737e-02 1.715e-02 1.737e-02 
*LOADS
*RC U372:C 5.960e-04
*RC U363:A 5.960e-04
*RC U197:A 5.960e-04
*RC U195:B 5.960e-04
*RC U194:A 5.960e-04
*RC U190:A 5.960e-04
*RC U186:C 5.960e-04
*END

*R_NET N39 5.520e-03
*DRIVER U366:Y
*CELL or2d1_hd
*C2_R1_C1 2.760e-03 7.370e-03 2.760e-03 
*LOADS
*RC U612:A 4.068e-05
*END

*R_NET N42 5.520e-03
*DRIVER U348:Y
*CELL or2d1_hd
*C2_R1_C1 2.760e-03 7.370e-03 2.760e-03 
*LOADS
*RC U616:A 4.068e-05
*END

*R_NET N47 2.224e-02
*DRIVER U10:Y
*CELL scg12d1_hd
*C2_R1_C1 1.112e-02 1.094e-02 1.112e-02 
*LOADS
*RC U611:A 2.433e-04
*RC U363:B 2.433e-04
*RC U198:A 2.433e-04
*RC U187:C 2.433e-04
*END

*R_NET N50 2.667e-02
*DRIVER U8:Y
*CELL nr3d1_hd
*C2_R1_C1 1.334e-02 1.549e-02 1.334e-02 
*LOADS
*RC U611:B 4.131e-04
*RC U498:D1 4.131e-04
*RC U363:C 4.131e-04
*RC U198:C 4.131e-04
*RC U187:B 4.131e-04
*END

*R_NET N51 5.520e-03
*DRIVER U368:Y
*CELL or2d1_hd
*C2_R1_C1 2.760e-03 7.370e-03 2.760e-03 
*LOADS
*RC U345:A 4.068e-05
*END

*R_NET N54 5.190e-03
*DRIVER U343:Y
*CELL ad2d1_hd
*C2_R1_C1 2.595e-03 7.370e-03 2.595e-03 
*LOADS
*RC U370:B 3.825e-05
*END

*R_NET N60 5.830e-03
*DRIVER U346:Y
*CELL ad2d1_hd
*C2_R1_C1 2.915e-03 7.370e-03 2.915e-03 
*LOADS
*RC U176:A 4.297e-05
*END

*R_NET N62 1.387e-02
*DRIVER U517:Y
*CELL ivd1_hd
*C2_R1_C1 6.935e-03 9.460e-03 6.935e-03 
*LOADS
*RC U514:A 1.312e-04
*RC U346:B 1.312e-04
*RC U309:B 1.312e-04
*END

*R_NET N120 5.600e-03
*DRIVER U628:Y
*CELL or2d1_hd
*C2_R1_C1 2.800e-03 7.370e-03 2.800e-03 
*LOADS
*RC U195:C 4.127e-05
*END

*R_NET N121 9.130e-03
*DRIVER U364:Y
*CELL or2d1_hd
*C2_R1_C1 4.565e-03 9.100e-03 4.565e-03 
*LOADS
*RC U355:B 8.308e-05
*RC U106:B 8.308e-05
*END

*R_NET N122 4.510e-03
*DRIVER U355:Y
*CELL or2d1_hd
*C2_R1_C1 2.255e-03 7.370e-03 2.255e-03 
*LOADS
*RC U114:B 3.324e-05
*END

*R_NET N127 2.462e-02
*DRIVER uart_rx/r_Rx_Byte_reg_0_:Q
*CELL fd2qd1_hd
*C2_R1_C1 1.231e-02 1.549e-02 1.231e-02 
*LOADS
*RC uart_rx/U109:D0 3.814e-04
*RC o_UART_DATA_RX_reg_0_:D 3.814e-04
*RC o_UART_DATA_RX_reg_8_:D 3.814e-04
*RC U619:A 3.814e-04
*RC U331:A 3.814e-04
*END

*R_NET N128 2.932e-02
*DRIVER uart_rx/r_Rx_Byte_reg_1_:Q
*CELL fd2qd1_hd
*C2_R1_C1 1.466e-02 1.674e-02 1.466e-02 
*LOADS
*RC uart_rx/U112:D0 4.908e-04
*RC o_UART_DATA_RX_reg_1_:D 4.908e-04
*RC o_UART_DATA_RX_reg_9_:D 4.908e-04
*RC U365:A 4.908e-04
*RC U327:A 4.908e-04
*RC U322:A 4.908e-04
*END

*R_NET N129 3.337e-02
*DRIVER uart_rx/r_Rx_Byte_reg_2_:Q
*CELL fd2qd1_hd
*C2_R1_C1 1.669e-02 1.715e-02 1.669e-02 
*LOADS
*RC uart_rx/U115:D0 5.723e-04
*RC o_UART_DATA_RX_reg_2_:D 5.723e-04
*RC o_UART_DATA_RX_reg_10_:D 5.723e-04
*RC U362:A 5.723e-04
*RC U359:A 5.723e-04
*RC U328:A 5.723e-04
*RC U324:A 5.723e-04
*END

*R_NET N130 3.337e-02
*DRIVER uart_rx/r_Rx_Byte_reg_3_:Q
*CELL fd2qd1_hd
*C2_R1_C1 1.669e-02 1.715e-02 1.669e-02 
*LOADS
*RC uart_rx/U118:D0 5.723e-04
*RC o_UART_DATA_RX_reg_3_:D 5.723e-04
*RC o_UART_DATA_RX_reg_11_:D 5.723e-04
*RC U360:A 5.723e-04
*RC U329:A 5.723e-04
*RC U326:A 5.723e-04
*RC U318:A 5.723e-04
*END

*R_NET N131 2.932e-02
*DRIVER uart_rx/r_Rx_Byte_reg_4_:Q
*CELL fd2qd1_hd
*C2_R1_C1 1.466e-02 1.674e-02 1.466e-02 
*LOADS
*RC uart_rx/U121:D0 4.908e-04
*RC o_UART_DATA_RX_reg_4_:D 4.908e-04
*RC o_UART_DATA_RX_reg_12_:D 4.908e-04
*RC U330:A 4.908e-04
*RC U297:A 4.908e-04
*RC U296:A 4.908e-04
*END

*R_NET N132 2.932e-02
*DRIVER uart_rx/r_Rx_Byte_reg_5_:Q
*CELL fd2qd1_hd
*C2_R1_C1 1.466e-02 1.674e-02 1.466e-02 
*LOADS
*RC uart_rx/U124:D0 4.908e-04
*RC o_UART_DATA_RX_reg_5_:D 4.908e-04
*RC o_UART_DATA_RX_reg_13_:D 4.908e-04
*RC U320:A 4.908e-04
*RC U316:A 4.908e-04
*RC U292:A 4.908e-04
*END

*R_NET N133 2.408e-02
*DRIVER uart_rx/r_Rx_Byte_reg_6_:Q
*CELL fd2qd1_hd
*C2_R1_C1 1.204e-02 1.549e-02 1.204e-02 
*LOADS
*RC uart_rx/U127:D0 3.730e-04
*RC o_UART_DATA_RX_reg_6_:D 3.730e-04
*RC o_UART_DATA_RX_reg_14_:D 3.730e-04
*RC U321:A 3.730e-04
*RC U294:A 3.730e-04
*END

*R_NET N134 3.400e-02
*DRIVER uart_rx/r_Rx_Byte_reg_7_:Q
*CELL fd2qd1_hd
*C2_R1_C1 1.700e-02 1.715e-02 1.700e-02 
*LOADS
*RC uart_rx/U130:D0 5.831e-04
*RC o_UART_DATA_RX_reg_7_:D 5.831e-04
*RC o_UART_DATA_RX_reg_15_:D 5.831e-04
*RC U317:B 5.831e-04
*RC U301:B 5.831e-04
*RC U299:B 5.831e-04
*RC U295:A 5.831e-04
*END

*R_NET N194 5.750e-03
*DRIVER U369:Y
*CELL or2d1_hd
*C2_R1_C1 2.875e-03 7.370e-03 2.875e-03 
*LOADS
*RC U107:A 4.238e-05
*END

*R_NET N199 4.920e-03
*DRIVER add_x_2_U2:S
*CELL had1_hd
*C2_R1_C1 2.460e-03 7.370e-03 2.460e-03 
*LOADS
*RC U117:AN 3.626e-05
*END

*R_NET N200 4.920e-03
*DRIVER U503:Y
*CELL xo2d1_hd
*C2_R1_C1 2.460e-03 7.370e-03 2.460e-03 
*LOADS
*RC U116:AN 3.626e-05
*END

*R_NET N206 5.900e-03
*DRIVER U613:Y
*CELL ivd1_hd
*C2_R1_C1 2.950e-03 7.370e-03 2.950e-03 
*LOADS
*RC U198:D 4.348e-05
*END

*R_NET N215 1.504e-02
*DRIVER U624:Y
*CELL ivd1_hd
*C2_R1_C1 7.520e-03 9.460e-03 7.520e-03 
*LOADS
*RC U514:D 1.423e-04
*RC U186:B 1.423e-04
*RC U111:B 1.423e-04
*END

*R_NET N223 6.380e-03
*DRIVER U497:Y
*CELL clknd2d1_hd
*C2_R1_C1 3.190e-03 7.370e-03 3.190e-03 
*LOADS
*RC U496:S 4.702e-05
*END

*R_NET N224 5.090e-03
*DRIVER U194:Y
*CELL scg17d1_hd
*C2_R1_C1 2.545e-03 7.370e-03 2.545e-03 
*LOADS
*RC U496:D1 3.751e-05
*END

*R_NET N225 6.380e-03
*DRIVER U500:Y
*CELL clknd2d1_hd
*C2_R1_C1 3.190e-03 7.370e-03 3.190e-03 
*LOADS
*RC U499:S 4.702e-05
*END

*R_NET N226 5.090e-03
*DRIVER U189:Y
*CELL scg17d1_hd
*C2_R1_C1 2.545e-03 7.370e-03 2.545e-03 
*LOADS
*RC U499:D1 3.751e-05
*END

*R_NET N227 6.030e-03
*DRIVER U186:Y
*CELL scg17d1_hd
*C2_R1_C1 3.015e-03 7.370e-03 3.015e-03 
*LOADS
*RC clk_gate_r_uart_data_tx_valid_reg/latch:EN 4.444e-05
*END

*R_NET N228 4.680e-03
*DRIVER U185:Y
*CELL ad2d1_hd
*C2_R1_C1 2.340e-03 7.370e-03 2.340e-03 
*LOADS
*RC r_uart_data_tx_reg_0_:D 3.449e-05
*END

*R_NET N229 4.680e-03
*DRIVER U184:Y
*CELL ad2d1_hd
*C2_R1_C1 2.340e-03 7.370e-03 2.340e-03 
*LOADS
*RC r_uart_data_tx_reg_1_:D 3.449e-05
*END

*R_NET N230 4.680e-03
*DRIVER U183:Y
*CELL ad2d1_hd
*C2_R1_C1 2.340e-03 7.370e-03 2.340e-03 
*LOADS
*RC r_uart_data_tx_reg_2_:D 3.449e-05
*END

*R_NET N231 4.680e-03
*DRIVER U182:Y
*CELL ad2d1_hd
*C2_R1_C1 2.340e-03 7.370e-03 2.340e-03 
*LOADS
*RC r_uart_data_tx_reg_3_:D 3.449e-05
*END

*R_NET N232 4.680e-03
*DRIVER U181:Y
*CELL ad2d1_hd
*C2_R1_C1 2.340e-03 7.370e-03 2.340e-03 
*LOADS
*RC r_uart_data_tx_reg_4_:D 3.449e-05
*END

*R_NET N233 4.680e-03
*DRIVER U180:Y
*CELL ad2d1_hd
*C2_R1_C1 2.340e-03 7.370e-03 2.340e-03 
*LOADS
*RC r_uart_data_tx_reg_5_:D 3.449e-05
*END

*R_NET N234 4.680e-03
*DRIVER U179:Y
*CELL ad2d1_hd
*C2_R1_C1 2.340e-03 7.370e-03 2.340e-03 
*LOADS
*RC r_uart_data_tx_reg_6_:D 3.449e-05
*END

*R_NET N235 4.680e-03
*DRIVER U178:Y
*CELL ad2d1_hd
*C2_R1_C1 2.340e-03 7.370e-03 2.340e-03 
*LOADS
*RC r_uart_data_tx_reg_7_:D 3.449e-05
*END

*R_NET N236 6.030e-03
*DRIVER U372:Y
*CELL scg6d1_hd
*C2_R1_C1 3.015e-03 7.370e-03 3.015e-03 
*LOADS
*RC clk_gate_r_uart_data_tx_shift_reg_55_/latch:EN 4.444e-05
*END

*R_NET N237 4.680e-03
*DRIVER U174:Y
*CELL ad2d1_hd
*C2_R1_C1 2.340e-03 7.370e-03 2.340e-03 
*LOADS
*RC r_uart_data_tx_shift_reg_0_:D 3.449e-05
*END

*R_NET N238 4.680e-03
*DRIVER U173:Y
*CELL ad2d1_hd
*C2_R1_C1 2.340e-03 7.370e-03 2.340e-03 
*LOADS
*RC r_uart_data_tx_shift_reg_1_:D 3.449e-05
*END

*R_NET N239 4.680e-03
*DRIVER U172:Y
*CELL ad2d1_hd
*C2_R1_C1 2.340e-03 7.370e-03 2.340e-03 
*LOADS
*RC r_uart_data_tx_shift_reg_2_:D 3.449e-05
*END

*R_NET N240 4.680e-03
*DRIVER U171:Y
*CELL ad2d1_hd
*C2_R1_C1 2.340e-03 7.370e-03 2.340e-03 
*LOADS
*RC r_uart_data_tx_shift_reg_3_:D 3.449e-05
*END

*R_NET N241 4.680e-03
*DRIVER U170:Y
*CELL ad2d1_hd
*C2_R1_C1 2.340e-03 7.370e-03 2.340e-03 
*LOADS
*RC r_uart_data_tx_shift_reg_4_:D 3.449e-05
*END

*R_NET N242 4.680e-03
*DRIVER U169:Y
*CELL ad2d1_hd
*C2_R1_C1 2.340e-03 7.370e-03 2.340e-03 
*LOADS
*RC r_uart_data_tx_shift_reg_5_:D 3.449e-05
*END

*R_NET N243 4.680e-03
*DRIVER U168:Y
*CELL ad2d1_hd
*C2_R1_C1 2.340e-03 7.370e-03 2.340e-03 
*LOADS
*RC r_uart_data_tx_shift_reg_6_:D 3.449e-05
*END

*R_NET N244 4.680e-03
*DRIVER U167:Y
*CELL ad2d1_hd
*C2_R1_C1 2.340e-03 7.370e-03 2.340e-03 
*LOADS
*RC r_uart_data_tx_shift_reg_7_:D 3.449e-05
*END

*R_NET N293 1.880e-02
*DRIVER U363:Y
*CELL or3d1_hd
*C2_R1_C1 9.400e-03 9.460e-03 9.400e-03 
*LOADS
*RC U504:S 1.778e-04
*RC U502:S 1.778e-04
*RC U501:S 1.778e-04
*END

*R_NET N294 5.090e-03
*DRIVER U118:Y
*CELL nr2d1_hd
*C2_R1_C1 2.545e-03 7.370e-03 2.545e-03 
*LOADS
*RC U501:D1 3.751e-05
*END

*R_NET N295 5.090e-03
*DRIVER U117:Y
*CELL nr2bd1_hd
*C2_R1_C1 2.545e-03 7.370e-03 2.545e-03 
*LOADS
*RC U504:D1 3.751e-05
*END

*R_NET N296 5.090e-03
*DRIVER U116:Y
*CELL nr2bd1_hd
*C2_R1_C1 2.545e-03 7.370e-03 2.545e-03 
*LOADS
*RC U502:D1 3.751e-05
*END

*R_NET N297 6.030e-03
*DRIVER U115:Y
*CELL ivd1_hd
*C2_R1_C1 3.015e-03 7.370e-03 3.015e-03 
*LOADS
*RC clk_gate_o_UART_DATA_RX_reg_7_/latch:EN 4.444e-05
*END

*R_NET N298 6.030e-03
*DRIVER U114:Y
*CELL scg14d1_hd
*C2_R1_C1 3.015e-03 7.370e-03 3.015e-03 
*LOADS