*SPEF "IEEE 1481-1999"
*DESIGN "float_adder"
*DATE "Mon May  4 20:23:03 2020"
*VENDOR "SYNOPSYS INC"
*PROGRAM "Synopsys Design Compiler cmos"
*VERSION "F-2011.09-SP5-3"
*DESIGN_FLOW "SYNTHESIS"
*DIVIDER /
*DELIMITER :
*BUS_DELIMITER []
*T_UNIT 1.0 NS
*C_UNIT 1.0 PF
*R_UNIT 1.0 KOHM
*L_UNIT 1.0 HENRY

*PORTS

i_A\[31\] I *L 0.000e+00 *S 0.000e+00 0.000e+00 
i_A\[30\] I *L 0.000e+00 *S 0.000e+00 0.000e+00 
i_A\[29\] I *L 0.000e+00 *S 0.000e+00 0.000e+00 
i_A\[28\] I *L 0.000e+00 *S 0.000e+00 0.000e+00 
i_A\[27\] I *L 0.000e+00 *S 0.000e+00 0.000e+00 
i_A\[26\] I *L 0.000e+00 *S 0.000e+00 0.000e+00 
i_A\[25\] I *L 0.000e+00 *S 0.000e+00 0.000e+00 
i_A\[24\] I *L 0.000e+00 *S 0.000e+00 0.000e+00 
i_A\[23\] I *L 0.000e+00 *S 0.000e+00 0.000e+00 
i_A\[22\] I *L 0.000e+00 *S 0.000e+00 0.000e+00 
i_A\[21\] I *L 0.000e+00 *S 0.000e+00 0.000e+00 
i_A\[20\] I *L 0.000e+00 *S 0.000e+00 0.000e+00 
i_A\[19\] I *L 0.000e+00 *S 0.000e+00 0.000e+00 
i_A\[18\] I *L 0.000e+00 *S 0.000e+00 0.000e+00 
i_A\[17\] I *L 0.000e+00 *S 0.000e+00 0.000e+00 
i_A\[16\] I *L 0.000e+00 *S 0.000e+00 0.000e+00 
i_A\[15\] I *L 0.000e+00 *S 0.000e+00 0.000e+00 
i_A\[14\] I *L 0.000e+00 *S 0.000e+00 0.000e+00 
i_A\[13\] I *L 0.000e+00 *S 0.000e+00 0.000e+00 
i_A\[12\] I *L 0.000e+00 *S 0.000e+00 0.000e+00 
i_A\[11\] I *L 0.000e+00 *S 0.000e+00 0.000e+00 
i_A\[10\] I *L 0.000e+00 *S 0.000e+00 0.000e+00 
i_A\[9\] I *L 0.000e+00 *S 0.000e+00 0.000e+00 
i_A\[8\] I *L 0.000e+00 *S 0.000e+00 0.000e+00 
i_A\[7\] I *L 0.000e+00 *S 0.000e+00 0.000e+00 
i_A\[6\] I *L 0.000e+00 *S 0.000e+00 0.000e+00 
i_A\[5\] I *L 0.000e+00 *S 0.000e+00 0.000e+00 
i_A\[4\] I *L 0.000e+00 *S 0.000e+00 0.000e+00 
i_A\[3\] I *L 0.000e+00 *S 0.000e+00 0.000e+00 
i_A\[2\] I *L 0.000e+00 *S 0.000e+00 0.000e+00 
i_A\[1\] I *L 0.000e+00 *S 0.000e+00 0.000e+00 
i_A\[0\] I *L 0.000e+00 *S 0.000e+00 0.000e+00 
i_B\[31\] I *L 0.000e+00 *S 0.000e+00 0.000e+00 
i_B\[30\] I *L 0.000e+00 *S 0.000e+00 0.000e+00 
i_B\[29\] I *L 0.000e+00 *S 0.000e+00 0.000e+00 
i_B\[28\] I *L 0.000e+00 *S 0.000e+00 0.000e+00 
i_B\[27\] I *L 0.000e+00 *S 0.000e+00 0.000e+00 
i_B\[26\] I *L 0.000e+00 *S 0.000e+00 0.000e+00 
i_B\[25\] I *L 0.000e+00 *S 0.000e+00 0.000e+00 
i_B\[24\] I *L 0.000e+00 *S 0.000e+00 0.000e+00 
i_B\[23\] I *L 0.000e+00 *S 0.000e+00 0.000e+00 
i_B\[22\] I *L 0.000e+00 *S 0.000e+00 0.000e+00 
i_B\[21\] I *L 0.000e+00 *S 0.000e+00 0.000e+00 
i_B\[20\] I *L 0.000e+00 *S 0.000e+00 0.000e+00 
i_B\[19\] I *L 0.000e+00 *S 0.000e+00 0.000e+00 
i_B\[18\] I *L 0.000e+00 *S 0.000e+00 0.000e+00 
i_B\[17\] I *L 0.000e+00 *S 0.000e+00 0.000e+00 
i_B\[16\] I *L 0.000e+00 *S 0.000e+00 0.000e+00 
i_B\[15\] I *L 0.000e+00 *S 0.000e+00 0.000e+00 
i_B\[14\] I *L 0.000e+00 *S 0.000e+00 0.000e+00 
i_B\[13\] I *L 0.000e+00 *S 0.000e+00 0.000e+00 
i_B\[12\] I *L 0.000e+00 *S 0.000e+00 0.000e+00 
i_B\[11\] I *L 0.000e+00 *S 0.000e+00 0.000e+00 
i_B\[10\] I *L 0.000e+00 *S 0.000e+00 0.000e+00 
i_B\[9\] I *L 0.000e+00 *S 0.000e+00 0.000e+00 
i_B\[8\] I *L 0.000e+00 *S 0.000e+00 0.000e+00 
i_B\[7\] I *L 0.000e+00 *S 0.000e+00 0.000e+00 
i_B\[6\] I *L 0.000e+00 *S 0.000e+00 0.000e+00 
i_B\[5\] I *L 0.000e+00 *S 0.000e+00 0.000e+00 
i_B\[4\] I *L 0.000e+00 *S 0.000e+00 0.000e+00 
i_B\[3\] I *L 0.000e+00 *S 0.000e+00 0.000e+00 
i_B\[2\] I *L 0.000e+00 *S 0.000e+00 0.000e+00 
i_B\[1\] I *L 0.000e+00 *S 0.000e+00 0.000e+00 
i_B\[0\] I *L 0.000e+00 *S 0.000e+00 0.000e+00 
i_AB_STB I *L 0.000e+00 *S 0.000e+00 0.000e+00 
o_AB_ACK O *L 1.035e-02 *S 2.081e-01 1.649e-01 
o_Z\[31\] O *L 1.035e-02 *S 1.239e-01 9.944e-02 
o_Z\[30\] O *L 1.035e-02 *S 1.239e-01 9.944e-02 
o_Z\[29\] O *L 1.035e-02 *S 1.239e-01 9.944e-02 
o_Z\[28\] O *L 1.035e-02 *S 1.239e-01 9.944e-02 
o_Z\[27\] O *L 1.035e-02 *S 1.239e-01 9.944e-02 
o_Z\[26\] O *L 1.035e-02 *S 1.239e-01 9.944e-02 
o_Z\[25\] O *L 1.035e-02 *S 1.239e-01 9.944e-02 
o_Z\[24\] O *L 1.035e-02 *S 1.239e-01 9.944e-02 
o_Z\[23\] O *L 1.035e-02 *S 1.239e-01 9.944e-02 
o_Z\[22\] O *L 1.035e-02 *S 1.239e-01 9.944e-02 
o_Z\[21\] O *L 1.035e-02 *S 1.239e-01 9.944e-02 
o_Z\[20\] O *L 1.035e-02 *S 1.239e-01 9.944e-02 
o_Z\[19\] O *L 1.035e-02 *S 1.239e-01 9.944e-02 
o_Z\[18\] O *L 1.035e-02 *S 1.239e-01 9.944e-02 
o_Z\[17\] O *L 1.035e-02 *S 1.239e-01 9.944e-02 
o_Z\[16\] O *L 1.035e-02 *S 1.239e-01 9.944e-02 
o_Z\[15\] O *L 1.035e-02 *S 1.239e-01 9.944e-02 
o_Z\[14\] O *L 1.035e-02 *S 1.239e-01 9.944e-02 
o_Z\[13\] O *L 1.035e-02 *S 1.239e-01 9.944e-02 
o_Z\[12\] O *L 1.035e-02 *S 1.239e-01 9.944e-02 
o_Z\[11\] O *L 1.035e-02 *S 1.239e-01 9.944e-02 
o_Z\[10\] O *L 1.035e-02 *S 1.239e-01 9.944e-02 
o_Z\[9\] O *L 1.035e-02 *S 1.239e-01 9.944e-02 
o_Z\[8\] O *L 1.035e-02 *S 1.239e-01 9.944e-02 
o_Z\[7\] O *L 1.035e-02 *S 1.239e-01 9.944e-02 
o_Z\[6\] O *L 1.035e-02 *S 1.239e-01 9.944e-02 
o_Z\[5\] O *L 1.035e-02 *S 1.239e-01 9.944e-02 
o_Z\[4\] O *L 1.035e-02 *S 1.239e-01 9.944e-02 
o_Z\[3\] O *L 1.035e-02 *S 1.239e-01 9.944e-02 
o_Z\[2\] O *L 1.035e-02 *S 1.239e-01 9.944e-02 
o_Z\[1\] O *L 1.035e-02 *S 1.239e-01 9.944e-02 
o_Z\[0\] O *L 1.035e-02 *S 1.239e-01 9.944e-02 
o_Z_STB O *L 1.035e-02 *S 2.063e-01 1.638e-01 
i_Z_ACK I *L 0.000e+00 *S 0.000e+00 0.000e+00 
i_CLK I *L 0.000e+00 *S 0.000e+00 0.000e+00 
i_RST I *L 0.000e+00 *S 0.000e+00 0.000e+00 

*R_NET i_A\[31\] 4.500e-03
*DRIVER i_A\[31\]
*CELL NULL
*C2_R1_C1 2.250e-03 7.370e-03 2.250e-03 
*LOADS
*RC a_reg_31_:D 3.316e-05
*END

*R_NET i_A\[30\] 4.500e-03
*DRIVER i_A\[30\]
*CELL NULL
*C2_R1_C1 2.250e-03 7.370e-03 2.250e-03 
*LOADS
*RC a_reg_30_:D 3.316e-05
*END

*R_NET i_A\[29\] 4.500e-03
*DRIVER i_A\[29\]
*CELL NULL
*C2_R1_C1 2.250e-03 7.370e-03 2.250e-03 
*LOADS
*RC a_reg_29_:D 3.316e-05
*END

*R_NET i_A\[28\] 4.500e-03
*DRIVER i_A\[28\]
*CELL NULL
*C2_R1_C1 2.250e-03 7.370e-03 2.250e-03 
*LOADS
*RC a_reg_28_:D 3.316e-05
*END

*R_NET i_A\[27\] 4.500e-03
*DRIVER i_A\[27\]
*CELL NULL
*C2_R1_C1 2.250e-03 7.370e-03 2.250e-03 
*LOADS
*RC a_reg_27_:D 3.316e-05
*END

*R_NET i_A\[26\] 4.500e-03
*DRIVER i_A\[26\]
*CELL NULL
*C2_R1_C1 2.250e-03 7.370e-03 2.250e-03 
*LOADS
*RC a_reg_26_:D 3.316e-05
*END

*R_NET i_A\[25\] 4.500e-03
*DRIVER i_A\[25\]
*CELL NULL
*C2_R1_C1 2.250e-03 7.370e-03 2.250e-03 
*LOADS
*RC a_reg_25_:D 3.316e-05
*END

*R_NET i_A\[24\] 4.500e-03
*DRIVER i_A\[24\]
*CELL NULL
*C2_R1_C1 2.250e-03 7.370e-03 2.250e-03 
*LOADS
*RC a_reg_24_:D 3.316e-05
*END

*R_NET i_A\[23\] 4.500e-03
*DRIVER i_A\[23\]
*CELL NULL
*C2_R1_C1 2.250e-03 7.370e-03 2.250e-03 
*LOADS
*RC a_reg_23_:D 3.316e-05
*END

*R_NET i_A\[22\] 4.500e-03
*DRIVER i_A\[22\]
*CELL NULL
*C2_R1_C1 2.250e-03 7.370e-03 2.250e-03 
*LOADS
*RC a_reg_22_:D 3.316e-05
*END

*R_NET i_A\[21\] 4.500e-03
*DRIVER i_A\[21\]
*CELL NULL
*C2_R1_C1 2.250e-03 7.370e-03 2.250e-03 
*LOADS
*RC a_reg_21_:D 3.316e-05
*END

*R_NET i_A\[20\] 4.500e-03
*DRIVER i_A\[20\]
*CELL NULL
*C2_R1_C1 2.250e-03 7.370e-03 2.250e-03 
*LOADS
*RC a_reg_20_:D 3.316e-05
*END

*R_NET i_A\[19\] 4.500e-03
*DRIVER i_A\[19\]
*CELL NULL
*C2_R1_C1 2.250e-03 7.370e-03 2.250e-03 
*LOADS
*RC a_reg_19_:D 3.316e-05
*END

*R_NET i_A\[18\] 4.500e-03
*DRIVER i_A\[18\]
*CELL NULL
*C2_R1_C1 2.250e-03 7.370e-03 2.250e-03 
*LOADS
*RC a_reg_18_:D 3.316e-05
*END

*R_NET i_A\[17\] 4.500e-03
*DRIVER i_A\[17\]
*CELL NULL
*C2_R1_C1 2.250e-03 7.370e-03 2.250e-03 
*LOADS
*RC a_reg_17_:D 3.316e-05
*END

*R_NET i_A\[16\] 4.500e-03
*DRIVER i_A\[16\]
*CELL NULL
*C2_R1_C1 2.250e-03 7.370e-03 2.250e-03 
*LOADS
*RC a_reg_16_:D 3.316e-05
*END

*R_NET i_A\[15\] 4.500e-03
*DRIVER i_A\[15\]
*CELL NULL
*C2_R1_C1 2.250e-03 7.370e-03 2.250e-03 
*LOADS
*RC a_reg_15_:D 3.316e-05
*END

*R_NET i_A\[14\] 4.500e-03
*DRIVER i_A\[14\]
*CELL NULL
*C2_R1_C1 2.250e-03 7.370e-03 2.250e-03 
*LOADS
*RC a_reg_14_:D 3.316e-05
*END

*R_NET i_A\[13\] 4.500e-03
*DRIVER i_A\[13\]
*CELL NULL
*C2_R1_C1 2.250e-03 7.370e-03 2.250e-03 
*LOADS
*RC a_reg_13_:D 3.316e-05
*END

*R_NET i_A\[12\] 4.500e-03
*DRIVER i_A\[12\]
*CELL NULL
*C2_R1_C1 2.250e-03 7.370e-03 2.250e-03 
*LOADS
*RC a_reg_12_:D 3.316e-05
*END

*R_NET i_A\[11\] 4.500e-03
*DRIVER i_A\[11\]
*CELL NULL
*C2_R1_C1 2.250e-03 7.370e-03 2.250e-03 
*LOADS
*RC a_reg_11_:D 3.316e-05
*END

*R_NET i_A\[10\] 4.500e-03
*DRIVER i_A\[10\]
*CELL NULL
*C2_R1_C1 2.250e-03 7.370e-03 2.250e-03 
*LOADS
*RC a_reg_10_:D 3.316e-05
*END

*R_NET i_A\[9\] 4.500e-03
*DRIVER i_A\[9\]
*CELL NULL
*C2_R1_C1 2.250e-03 7.370e-03 2.250e-03 
*LOADS
*RC a_reg_9_:D 3.316e-05
*END

*R_NET i_A\[8\] 4.500e-03
*DRIVER i_A\[8\]
*CELL NULL
*C2_R1_C1 2.250e-03 7.370e-03 2.250e-03 
*LOADS
*RC a_reg_8_:D 3.316e-05
*END

*R_NET i_A\[7\] 4.500e-03
*DRIVER i_A\[7\]
*CELL NULL
*C2_R1_C1 2.250e-03 7.370e-03 2.250e-03 
*LOADS
*RC a_reg_7_:D 3.316e-05
*END

*R_NET i_A\[6\] 4.500e-03
*DRIVER i_A\[6\]
*CELL NULL
*C2_R1_C1 2.250e-03 7.370e-03 2.250e-03 
*LOADS
*RC a_reg_6_:D 3.316e-05
*END

*R_NET i_A\[5\] 4.500e-03
*DRIVER i_A\[5\]
*CELL NULL
*C2_R1_C1 2.250e-03 7.370e-03 2.250e-03 
*LOADS
*RC a_reg_5_:D 3.316e-05
*END

*R_NET i_A\[4\] 4.500e-03
*DRIVER i_A\[4\]
*CELL NULL
*C2_R1_C1 2.250e-03 7.370e-03 2.250e-03 
*LOADS
*RC a_reg_4_:D 3.316e-05
*END

*R_NET i_A\[3\] 4.500e-03
*DRIVER i_A\[3\]
*CELL NULL
*C2_R1_C1 2.250e-03 7.370e-03 2.250e-03 
*LOADS
*RC a_reg_3_:D 3.316e-05
*END

*R_NET i_A\[2\] 4.500e-03
*DRIVER i_A\[2\]
*CELL NULL
*C2_R1_C1 2.250e-03 7.370e-03 2.250e-03 
*LOADS
*RC a_reg_2_:D 3.316e-05
*END

*R_NET i_A\[1\] 4.500e-03
*DRIVER i_A\[1\]
*CELL NULL
*C2_R1_C1 2.250e-03 7.370e-03 2.250e-03 
*LOADS
*RC a_reg_1_:D 3.316e-05
*END

*R_NET i_A\[0\] 4.500e-03
*DRIVER i_A\[0\]
*CELL NULL
*C2_R1_C1 2.250e-03 7.370e-03 2.250e-03 
*LOADS
*RC a_reg_0_:D 3.316e-05
*END

*R_NET i_B\[31\] 4.500e-03
*DRIVER i_B\[31\]
*CELL NULL
*C2_R1_C1 2.250e-03 7.370e-03 2.250e-03 
*LOADS
*RC b_reg_31_:D 3.316e-05
*END

*R_NET i_B\[30\] 4.500e-03
*DRIVER i_B\[30\]
*CELL NULL
*C2_R1_C1 2.250e-03 7.370e-03 2.250e-03 
*LOADS
*RC b_reg_30_:D 3.316e-05
*END

*R_NET i_B\[29\] 4.500e-03
*DRIVER i_B\[29\]
*CELL NULL
*C2_R1_C1 2.250e-03 7.370e-03 2.250e-03 
*LOADS
*RC b_reg_29_:D 3.316e-05
*END

*R_NET i_B\[28\] 4.500e-03
*DRIVER i_B\[28\]
*CELL NULL
*C2_R1_C1 2.250e-03 7.370e-03 2.250e-03 
*LOADS
*RC b_reg_28_:D 3.316e-05
*END

*R_NET i_B\[27\] 4.500e-03
*DRIVER i_B\[27\]
*CELL NULL
*C2_R1_C1 2.250e-03 7.370e-03 2.250e-03 
*LOADS
*RC b_reg_27_:D 3.316e-05
*END

*R_NET i_B\[26\] 4.500e-03
*DRIVER i_B\[26\]
*CELL NULL
*C2_R1_C1 2.250e-03 7.370e-03 2.250e-03 
*LOADS
*RC b_reg_26_:D 3.316e-05
*END

*R_NET i_B\[25\] 4.500e-03
*DRIVER i_B\[25\]
*CELL NULL
*C2_R1_C1 2.250e-03 7.370e-03 2.250e-03 
*LOADS
*RC b_reg_25_:D 3.316e-05
*END

*R_NET i_B\[24\] 4.500e-03
*DRIVER i_B\[24\]
*CELL NULL
*C2_R1_C1 2.250e-03 7.370e-03 2.250e-03 
*LOADS
*RC b_reg_24_:D 3.316e-05
*END

*R_NET i_B\[23\] 4.500e-03
*DRIVER i_B\[23\]
*CELL NULL
*C2_R1_C1 2.250e-03 7.370e-03 2.250e-03 
*LOADS
*RC b_reg_23_:D 3.316e-05
*END

*R_NET i_B\[22\] 4.500e-03
*DRIVER i_B\[22\]
*CELL NULL
*C2_R1_C1 2.250e-03 7.370e-03 2.250e-03 
*LOADS
*RC b_reg_22_:D 3.316e-05
*END

*R_NET i_B\[21\] 4.500e-03
*DRIVER i_B\[21\]
*CELL NULL
*C2_R1_C1 2.250e-03 7.370e-03 2.250e-03 
*LOADS
*RC b_reg_21_:D 3.316e-05
*END

*R_NET i_B\[20\] 4.500e-03
*DRIVER i_B\[20\]
*CELL NULL
*C2_R1_C1 2.250e-03 7.370e-03 2.250e-03 
*LOADS
*RC b_reg_20_:D 3.316e-05
*END

*R_NET i_B\[19\] 4.500e-03
*DRIVER i_B\[19\]
*CELL NULL
*C2_R1_C1 2.250e-03 7.370e-03 2.250e-03 
*LOADS
*RC b_reg_19_:D 3.316e-05
*END

*R_NET i_B\[18\] 4.500e-03
*DRIVER i_B\[18\]
*CELL NULL
*C2_R1_C1 2.250e-03 7.370e-03 2.250e-03 
*LOADS
*RC b_reg_18_:D 3.316e-05
*END

*R_NET i_B\[17\] 4.500e-03
*DRIVER i_B\[17\]
*CELL NULL
*C2_R1_C1 2.250e-03 7.370e-03 2.250e-03 
*LOADS
*RC b_reg_17_:D 3.316e-05
*END

*R_NET i_B\[16\] 4.500e-03
*DRIVER i_B\[16\]
*CELL NULL
*C2_R1_C1 2.250e-03 7.370e-03 2.250e-03 
*LOADS
*RC b_reg_16_:D 3.316e-05
*END

*R_NET i_B\[15\] 4.500e-03
*DRIVER i_B\[15\]
*CELL NULL
*C2_R1_C1 2.250e-03 7.370e-03 2.250e-03 
*LOADS
*RC b_reg_15_:D 3.316e-05
*END

*R_NET i_B\[14\] 4.500e-03
*DRIVER i_B\[14\]
*CELL NULL
*C2_R1_C1 2.250e-03 7.370e-03 2.250e-03 
*LOADS
*RC b_reg_14_:D 3.316e-05
*END

*R_NET i_B\[13\] 4.500e-03
*DRIVER i_B\[13\]
*CELL NULL
*C2_R1_C1 2.250e-03 7.370e-03 2.250e-03 
*LOADS
*RC b_reg_13_:D 3.316e-05
*END

*R_NET i_B\[12\] 4.500e-03
*DRIVER i_B\[12\]
*CELL NULL
*C2_R1_C1 2.250e-03 7.370e-03 2.250e-03 
*LOADS
*RC b_reg_12_:D 3.316e-05
*END

*R_NET i_B\[11\] 4.500e-03
*DRIVER i_B\[11\]
*CELL NULL
*C2_R1_C1 2.250e-03 7.370e-03 2.250e-03 
*LOADS
*RC b_reg_11_:D 3.316e-05
*END

*R_NET i_B\[10\] 4.500e-03
*DRIVER i_B\[10\]
*CELL NULL
*C2_R1_C1 2.250e-03 7.370e-03 2.250e-03 
*LOADS
*RC b_reg_10_:D 3.316e-05
*END

*R_NET i_B\[9\] 4.500e-03
*DRIVER i_B\[9\]
*CELL NULL
*C2_R1_C1 2.250e-03 7.370e-03 2.250e-03 
*LOADS
*RC b_reg_9_:D 3.316e-05
*END

*R_NET i_B\[8\] 4.500e-03
*DRIVER i_B\[8\]
*CELL NULL
*C2_R1_C1 2.250e-03 7.370e-03 2.250e-03 
*LOADS
*RC b_reg_8_:D 3.316e-05
*END

*R_NET i_B\[7\] 4.500e-03
*DRIVER i_B\[7\]
*CELL NULL
*C2_R1_C1 2.250e-03 7.370e-03 2.250e-03 
*LOADS
*RC b_reg_7_:D 3.316e-05
*END

*R_NET i_B\[6\] 4.500e-03
*DRIVER i_B\[6\]
*CELL NULL
*C2_R1_C1 2.250e-03 7.370e-03 2.250e-03 
*LOADS
*RC b_reg_6_:D 3.316e-05
*END

*R_NET i_B\[5\] 4.500e-03
*DRIVER i_B\[5\]
*CELL NULL
*C2_R1_C1 2.250e-03 7.370e-03 2.250e-03 
*LOADS
*RC b_reg_5_:D 3.316e-05
*END

*R_NET i_B\[4\] 4.500e-03
*DRIVER i_B\[4\]
*CELL NULL
*C2_R1_C1 2.250e-03 7.370e-03 2.250e-03 
*LOADS
*RC b_reg_4_:D 3.316e-05
*END

*R_NET i_B\[3\] 4.500e-03
*DRIVER i_B\[3\]
*CELL NULL
*C2_R1_C1 2.250e-03 7.370e-03 2.250e-03 
*LOADS
*RC b_reg_3_:D 3.316e-05
*END

*R_NET i_B\[2\] 4.500e-03
*DRIVER i_B\[2\]
*CELL NULL
*C2_R1_C1 2.250e-03 7.370e-03 2.250e-03 
*LOADS
*RC b_reg_2_:D 3.316e-05
*END

*R_NET i_B\[1\] 4.500e-03
*DRIVER i_B\[1\]
*CELL NULL
*C2_R1_C1 2.250e-03 7.370e-03 2.250e-03 
*LOADS
*RC b_reg_1_:D 3.316e-05
*END

*R_NET i_B\[0\] 4.500e-03
*DRIVER i_B\[0\]
*CELL NULL
*C2_R1_C1 2.250e-03 7.370e-03 2.250e-03 
*LOADS
*RC b_reg_0_:D 3.316e-05
*END

*R_NET i_AB_STB 5.630e-03
*DRIVER i_AB_STB
*CELL NULL
*C2_R1_C1 2.815e-03 7.370e-03 2.815e-03 
*LOADS
*RC U960:B 4.149e-05
*END

*R_NET o_AB_ACK 2.376e-02
*DRIVER o_AB_ACK_reg:Q
*CELL fd1qd1_hd
*C2_R1_C1 1.188e-02 9.460e-03 1.188e-02 
*LOADS
*RC U960:C 2.248e-04
*RC o_AB_ACK 2.248e-04
*RC U117:A 2.248e-04
*END

*R_NET o_Z\[31\] 1.350e-02
*DRIVER o_Z_reg_31_:Q
*CELL fd1eqd1_hd
*C2_R1_C1 6.750e-03 7.370e-03 6.750e-03 
*LOADS
*RC o_Z\[31\] 9.950e-05
*END

*R_NET o_Z\[30\] 1.350e-02
*DRIVER o_Z_reg_30_:Q
*CELL fd1eqd1_hd
*C2_R1_C1 6.750e-03 7.370e-03 6.750e-03 
*LOADS
*RC o_Z\[30\] 9.950e-05
*END

*R_NET o_Z\[29\] 1.350e-02
*DRIVER o_Z_reg_29_:Q
*CELL fd1eqd1_hd
*C2_R1_C1 6.750e-03 7.370e-03 6.750e-03 
*LOADS
*RC o_Z\[29\] 9.950e-05
*END

*R_NET o_Z\[28\] 1.350e-02
*DRIVER o_Z_reg_28_:Q
*CELL fd1eqd1_hd
*C2_R1_C1 6.750e-03 7.370e-03 6.750e-03 
*LOADS
*RC o_Z\[28\] 9.950e-05
*END

*R_NET o_Z\[27\] 1.350e-02
*DRIVER o_Z_reg_27_:Q
*CELL fd1eqd1_hd
*C2_R1_C1 6.750e-03 7.370e-03 6.750e-03 
*LOADS
*RC o_Z\[27\] 9.950e-05
*END

*R_NET o_Z\[26\] 1.350e-02
*DRIVER o_Z_reg_26_:Q
*CELL fd1eqd1_hd
*C2_R1_C1 6.750e-03 7.370e-03 6.750e-03 
*LOADS
*RC o_Z\[26\] 9.950e-05
*END

*R_NET o_Z\[25\] 1.350e-02
*DRIVER o_Z_reg_25_:Q
*CELL fd1eqd1_hd
*C2_R1_C1 6.750e-03 7.370e-03 6.750e-03 
*LOADS
*RC o_Z\[25\] 9.950e-05
*END

*R_NET o_Z\[24\] 1.350e-02
*DRIVER o_Z_reg_24_:Q
*CELL fd1eqd1_hd
*C2_R1_C1 6.750e-03 7.370e-03 6.750e-03 
*LOADS
*RC o_Z\[24\] 9.950e-05
*END

*R_NET o_Z\[23\] 1.350e-02
*DRIVER o_Z_reg_23_:Q
*CELL fd1eqd1_hd
*C2_R1_C1 6.750e-03 7.370e-03 6.750e-03 
*LOADS
*RC o_Z\[23\] 9.950e-05
*END

*R_NET o_Z\[22\] 1.350e-02
*DRIVER o_Z_reg_22_:Q
*CELL fd1eqd1_hd
*C2_R1_C1 6.750e-03 7.370e-03 6.750e-03 
*LOADS
*RC o_Z\[22\] 9.950e-05
*END

*R_NET o_Z\[21\] 1.350e-02
*DRIVER o_Z_reg_21_:Q
*CELL fd1eqd1_hd
*C2_R1_C1 6.750e-03 7.370e-03 6.750e-03 
*LOADS
*RC o_Z\[21\] 9.950e-05
*END

*R_NET o_Z\[20\] 1.350e-02
*DRIVER o_Z_reg_20_:Q
*CELL fd1eqd1_hd
*C2_R1_C1 6.750e-03 7.370e-03 6.750e-03 
*LOADS
*RC o_Z\[20\] 9.950e-05
*END

*R_NET o_Z\[19\] 1.350e-02
*DRIVER o_Z_reg_19_:Q
*CELL fd1eqd1_hd
*C2_R1_C1 6.750e-03 7.370e-03 6.750e-03 
*LOADS
*RC o_Z\[19\] 9.950e-05
*END

*R_NET o_Z\[18\] 1.350e-02
*DRIVER o_Z_reg_18_:Q
*CELL fd1eqd1_hd
*C2_R1_C1 6.750e-03 7.370e-03 6.750e-03 
*LOADS
*RC o_Z\[18\] 9.950e-05
*END

*R_NET o_Z\[17\] 1.350e-02
*DRIVER o_Z_reg_17_:Q
*CELL fd1eqd1_hd
*C2_R1_C1 6.750e-03 7.370e-03 6.750e-03 
*LOADS
*RC o_Z\[17\] 9.950e-05
*END

*R_NET o_Z\[16\] 1.350e-02
*DRIVER o_Z_reg_16_:Q
*CELL fd1eqd1_hd
*C2_R1_C1 6.750e-03 7.370e-03 6.750e-03 
*LOADS
*RC o_Z\[16\] 9.950e-05
*END

*R_NET o_Z\[15\] 1.350e-02
*DRIVER o_Z_reg_15_:Q
*CELL fd1eqd1_hd
*C2_R1_C1 6.750e-03 7.370e-03 6.750e-03 
*LOADS
*RC o_Z\[15\] 9.950e-05
*END

*R_NET o_Z\[14\] 1.350e-02
*DRIVER o_Z_reg_14_:Q
*CELL fd1eqd1_hd
*C2_R1_C1 6.750e-03 7.370e-03 6.750e-03 
*LOADS
*RC o_Z\[14\] 9.950e-05
*END

*R_NET o_Z\[13\] 1.350e-02
*DRIVER o_Z_reg_13_:Q
*CELL fd1eqd1_hd
*C2_R1_C1 6.750e-03 7.370e-03 6.750e-03 
*LOADS
*RC o_Z\[13\] 9.950e-05
*END

*R_NET o_Z\[12\] 1.350e-02
*DRIVER o_Z_reg_12_:Q
*CELL fd1eqd1_hd
*C2_R1_C1 6.750e-03 7.370e-03 6.750e-03 
*LOADS
*RC o_Z\[12\] 9.950e-05
*END

*R_NET o_Z\[11\] 1.350e-02
*DRIVER o_Z_reg_11_:Q
*CELL fd1eqd1_hd
*C2_R1_C1 6.750e-03 7.370e-03 6.750e-03 
*LOADS
*RC o_Z\[11\] 9.950e-05
*END

*R_NET o_Z\[10\] 1.350e-02
*DRIVER o_Z_reg_10_:Q
*CELL fd1eqd1_hd
*C2_R1_C1 6.750e-03 7.370e-03 6.750e-03 
*LOADS
*RC o_Z\[10\] 9.950e-05
*END

*R_NET o_Z\[9\] 1.350e-02
*DRIVER o_Z_reg_9_:Q
*CELL fd1eqd1_hd
*C2_R1_C1 6.750e-03 7.370e-03 6.750e-03 
*LOADS
*RC o_Z\[9\] 9.950e-05
*END

*R_NET o_Z\[8\] 1.350e-02
*DRIVER o_Z_reg_8_:Q
*CELL fd1eqd1_hd
*C2_R1_C1 6.750e-03 7.370e-03 6.750e-03 
*LOADS
*RC o_Z\[8\] 9.950e-05
*END

*R_NET o_Z\[7\] 1.350e-02
*DRIVER o_Z_reg_7_:Q
*CELL fd1eqd1_hd
*C2_R1_C1 6.750e-03 7.370e-03 6.750e-03 
*LOADS
*RC o_Z\[7\] 9.950e-05
*END

*R_NET o_Z\[6\] 1.350e-02
*DRIVER o_Z_reg_6_:Q
*CELL fd1eqd1_hd
*C2_R1_C1 6.750e-03 7.370e-03 6.750e-03 
*LOADS
*RC o_Z\[6\] 9.950e-05
*END

*R_NET o_Z\[5\] 1.350e-02
*DRIVER o_Z_reg_5_:Q
*CELL fd1eqd1_hd
*C2_R1_C1 6.750e-03 7.370e-03 6.750e-03 
*LOADS
*RC o_Z\[5\] 9.950e-05
*END

*R_NET o_Z\[4\] 1.350e-02
*DRIVER o_Z_reg_4_:Q
*CELL fd1eqd1_hd
*C2_R1_C1 6.750e-03 7.370e-03 6.750e-03 
*LOADS
*RC o_Z\[4\] 9.950e-05
*END

*R_NET o_Z\[3\] 1.350e-02
*DRIVER o_Z_reg_3_:Q
*CELL fd1eqd1_hd
*C2_R1_C1 6.750e-03 7.370e-03 6.750e-03 
*LOADS
*RC o_Z\[3\] 9.950e-05
*END

*R_NET o_Z\[2\] 1.350e-02
*DRIVER o_Z_reg_2_:Q
*CELL fd1eqd1_hd
*C2_R1_C1 6.750e-03 7.370e-03 6.750e-03 
*LOADS
*RC o_Z\[2\] 9.950e-05
*END

*R_NET o_Z\[1\] 1.350e-02
*DRIVER o_Z_reg_1_:Q
*CELL fd1eqd1_hd
*C2_R1_C1 6.750e-03 7.370e-03 6.750e-03 
*LOADS
*RC o_Z\[1\] 9.950e-05
*END

*R_NET o_Z\[0\] 1.350e-02
*DRIVER o_Z_reg_0_:Q
*CELL fd1eqd1_hd
*C2_R1_C1 6.750e-03 7.370e-03 6.750e-03 
*LOADS
*RC o_Z\[0\] 9.950e-05
*END

*R_NET o_Z_STB 2.354e-02
*DRIVER o_Z_STB_reg:Q
*CELL fd1qd1_hd
*C2_R1_C1 1.177e-02 9.460e-03 1.177e-02 
*LOADS
*RC U781:B 2.227e-04
*RC U1536:B 2.227e-04
*RC o_Z_STB 2.227e-04
*END

*R_NET i_Z_ACK 4.590e-03
*DRIVER i_Z_ACK
*CELL NULL
*C2_R1_C1 2.295e-03 7.370e-03 2.295e-03 
*LOADS
*RC U781:A 3.383e-05
*END

*R_NET state\[3\] 2.149e-02
*DRIVER state_reg_3_:Q
*CELL fd1qd1_hd
*C2_R1_C1 1.075e-02 1.094e-02 1.075e-02 
*LOADS
*RC U961:A 2.351e-04
*RC U983:A 2.351e-04
*RC U1052:A 2.351e-04
*RC U1055:B 2.351e-04
*END

*R_NET state\[2\] 2.226e-02
*DRIVER state_reg_2_:Q
*CELL fd1qd1_hd
*C2_R1_C1 1.113e-02 1.094e-02 1.113e-02 
*LOADS
*RC U539:B 2.435e-04
*RC U612:A 2.435e-04
*RC U984:A 2.435e-04
*RC U1057:A 2.435e-04
*END

*R_NET state\[1\] 1.572e-02
*DRIVER state_reg_1_:Q
*CELL fd1qd1_hd
*C2_R1_C1 7.860e-03 9.460e-03 7.860e-03 
*LOADS
*RC U824:A 1.487e-04
*RC U825:A 1.487e-04
*RC U1033:A 1.487e-04
*END

*R_NET state\[0\] 2.602e-02
*DRIVER state_reg_0_:Q
*CELL fd1qd1_hd
*C2_R1_C1 1.301e-02 1.549e-02 1.301e-02 
*LOADS
*RC U552:B 4.030e-04
*RC U660:A 4.030e-04
*RC U1017:A 4.030e-04
*RC U1032:A 4.030e-04
*RC U1057:B 4.030e-04
*END

*R_NET a\[31\] 4.500e-03
*DRIVER a_reg_31_:Q
*CELL fd1eqd1_hd
*C2_R1_C1 2.250e-03 7.370e-03 2.250e-03 
*LOADS
*RC a_s_reg:D 3.316e-05
*END

*R_NET a\[30\] 5.220e-03
*DRIVER a_reg_30_:Q
*CELL fd1eqd1_hd
*C2_R1_C1 2.610e-03 7.370e-03 2.610e-03 
*LOADS
*RC U992:A 3.847e-05
*END

*R_NET a\[29\] 5.220e-03
*DRIVER a_reg_29_:Q
*CELL fd1eqd1_hd
*C2_R1_C1 2.610e-03 7.370e-03 2.610e-03 
*LOADS
*RC U1224:A 3.847e-05
*END

*R_NET a\[28\] 1.041e-02
*DRIVER a_reg_28_:Q
*CELL fd1eqd1_hd
*C2_R1_C1 5.205e-03 9.100e-03 5.205e-03 
*LOADS
*RC U587:B 9.473e-05
*RC U1611:B 9.473e-05
*END

*R_NET a\[27\] 5.220e-03
*DRIVER a_reg_27_:Q
*CELL fd1eqd1_hd
*C2_R1_C1 2.610e-03 7.370e-03 2.610e-03 
*LOADS
*RC U1222:A 3.847e-05
*END

*R_NET a\[26\] 1.041e-02
*DRIVER a_reg_26_:Q
*CELL fd1eqd1_hd
*C2_R1_C1 5.205e-03 9.100e-03 5.205e-03 
*LOADS
*RC U620:B 9.473e-05
*RC U1603:B 9.473e-05
*END

*R_NET a\[25\] 5.220e-03
*DRIVER a_reg_25_:Q
*CELL fd1eqd1_hd
*C2_R1_C1 2.610e-03 7.370e-03 2.610e-03 
*LOADS
*RC U1220:A 3.847e-05
*END

*R_NET a\[24\] 1.029e-02
*DRIVER a_reg_24_:Q
*CELL fd1eqd1_hd
*C2_R1_C1 5.145e-03 9.100e-03 5.145e-03 
*LOADS
*RC U580:A 9.364e-05
*RC U1595:A 9.364e-05
*END

*R_NET a\[23\] 1.669e-02
*DRIVER a_reg_23_:Q
*CELL fd1eqd1_hd
*C2_R1_C1 8.345e-03 9.460e-03 8.345e-03 
*LOADS
*RC U580:B 1.579e-04
*RC U1592:A 1.579e-04
*RC U1595:B 1.579e-04
*END

*R_NET a\[22\] 5.800e-03
*DRIVER a_reg_22_:Q
*CELL fd1eqd1_hd
*C2_R1_C1 2.900e-03 7.370e-03 2.900e-03 
*LOADS
*RC U1228:B 4.275e-05
*END

*R_NET a\[21\] 5.800e-03
*DRIVER a_reg_21_:Q
*CELL fd1eqd1_hd
*C2_R1_C1 2.900e-03 7.370e-03 2.900e-03 
*LOADS
*RC U1276:B 4.275e-05
*END

*R_NET a\[20\] 5.800e-03
*DRIVER a_reg_20_:Q
*CELL fd1eqd1_hd
*C2_R1_C1 2.900e-03 7.370e-03 2.900e-03 
*LOADS
*RC U1274:B 4.275e-05
*END

*R_NET a\[19\] 5.800e-03
*DRIVER a_reg_19_:Q
*CELL fd1eqd1_hd
*C2_R1_C1 2.900e-03 7.370e-03 2.900e-03 
*LOADS
*RC U1272:B 4.275e-05
*END

*R_NET a\[18\] 5.800e-03
*DRIVER a_reg_18_:Q
*CELL fd1eqd1_hd
*C2_R1_C1 2.900e-03 7.370e-03 2.900e-03 
*LOADS
*RC U1270:B 4.275e-05
*END

*R_NET a\[17\] 5.800e-03
*DRIVER a_reg_17_:Q
*CELL fd1eqd1_hd
*C2_R1_C1 2.900e-03 7.370e-03 2.900e-03 
*LOADS
*RC U1268:B 4.275e-05
*END

*R_NET a\[16\] 5.800e-03
*DRIVER a_reg_16_:Q
*CELL fd1eqd1_hd
*C2_R1_C1 2.900e-03 7.370e-03 2.900e-03 
*LOADS
*RC U1266:B 4.275e-05
*END

*R_NET a\[15\] 5.800e-03
*DRIVER a_reg_15_:Q
*CELL fd1eqd1_hd
*C2_R1_C1 2.900e-03 7.370e-03 2.900e-03 
*LOADS
*RC U1264:B 4.275e-05
*END

*R_NET a\[14\] 5.800e-03
*DRIVER a_reg_14_:Q
*CELL fd1eqd1_hd
*C2_R1_C1 2.900e-03 7.370e-03 2.900e-03 
*LOADS
*RC U1262:B 4.275e-05
*END

*R_NET a\[13\] 5.800e-03
*DRIVER a_reg_13_:Q
*CELL fd1eqd1_hd
*C2_R1_C1 2.900e-03 7.370e-03 2.900e-03 
*LOADS
*RC U1260:B 4.275e-05
*END

*R_NET a\[12\] 5.800e-03
*DRIVER a_reg_12_:Q
*CELL fd1eqd1_hd
*C2_R1_C1 2.900e-03 7.370e-03 2.900e-03 
*LOADS
*RC U1258:B 4.275e-05
*END

*R_NET a\[11\] 5.800e-03
*DRIVER a_reg_11_:Q
*CELL fd1eqd1_hd
*C2_R1_C1 2.900e-03 7.370e-03 2.900e-03 
*LOADS
*RC U1256:B 4.275e-05
*END

*R_NET a\[10\] 5.800e-03
*DRIVER a_reg_10_:Q
*CELL fd1eqd1_hd
*C2_R1_C1 2.900e-03 7.370e-03 2.900e-03 
*LOADS
*RC U1254:B 4.275e-05
*END

*R_NET a\[9\] 5.800e-03
*DRIVER a_reg_9_:Q
*CELL fd1eqd1_hd
*C2_R1_C1 2.900e-03 7.370e-03 2.900e-03 
*LOADS
*RC U1252:B 4.275e-05
*END

*R_NET a\[8\] 5.800e-03
*DRIVER a_reg_8_:Q
*CELL fd1eqd1_hd
*C2_R1_C1 2.900e-03 7.370e-03 2.900e-03 
*LOADS
*RC U1250:B 4.275e-05
*END

*R_NET a\[7\] 5.800e-03
*DRIVER a_reg_7_:Q
*CELL fd1eqd1_hd
*C2_R1_C1 2.900e-03 7.370e-03 2.900e-03 
*LOADS
*RC U1248:B 4.275e-05
*END

*R_NET a\[6\] 5.800e-03
*DRIVER a_reg_6_:Q
*CELL fd1eqd1_hd
*C2_R1_C1 2.900e-03 7.370e-03 2.900e-03 
*LOADS
*RC U1246:B 4.275e-05
*END

*R_NET a\[5\] 5.800e-03
*DRIVER a_reg_5_:Q
*CELL fd1eqd1_hd
*C2_R1_C1 2.900e-03 7.370e-03 2.900e-03 
*LOADS
*RC U1244:B 4.275e-05
*END

*R_NET a\[4\] 5.800e-03
*DRIVER a_reg_4_:Q
*CELL fd1eqd1_hd
*C2_R1_C1 2.900e-03 7.370e-03 2.900e-03 
*LOADS
*RC U1242:B 4.275e-05
*END

*R_NET a\[3\] 5.800e-03
*DRIVER a_reg_3_:Q
*CELL fd1eqd1_hd
*C2_R1_C1 2.900e-03 7.370e-03 2.900e-03 
*LOADS
*RC U1240:B 4.275e-05
*END

*R_NET a\[2\] 5.800e-03
*DRIVER a_reg_2_:Q
*CELL fd1eqd1_hd
*C2_R1_C1 2.900e-03 7.370e-03 2.900e-03 
*LOADS
*RC U1238:B 4.275e-05
*END

*R_NET a\[1\] 5.800e-03
*DRIVER a_reg_1_:Q
*CELL fd1eqd1_hd
*C2_R1_C1 2.900e-03 7.370e-03 2.900e-03 
*LOADS
*RC U1236:B 4.275e-05
*END

*R_NET a\[0\] 5.800e-03
*DRIVER a_reg_0_:Q
*CELL fd1eqd1_hd
*C2_R1_C1 2.900e-03 7.370e-03 2.900e-03 
*LOADS
*RC U1234:B 4.275e-05
*END

*R_NET b\[31\] 4.500e-03
*DRIVER b_reg_31_:Q
*CELL fd1eqd1_hd
*C2_R1_C1 2.250e-03 7.370e-03 2.250e-03 
*LOADS
*RC b_s_reg:D 3.316e-05
*END

*R_NET b\[30\] 5.220e-03
*DRIVER b_reg_30_:Q
*CELL fd1eqd1_hd
*C2_R1_C1 2.610e-03 7.370e-03 2.610e-03 
*LOADS
*RC U1001:A 3.847e-05
*END

*R_NET b\[29\] 5.220e-03
*DRIVER b_reg_29_:Q
*CELL fd1eqd1_hd
*C2_R1_C1 2.610e-03 7.370e-03 2.610e-03 
*LOADS
*RC U1549:A 3.847e-05
*END

*R_NET b\[28\] 1.041e-02
*DRIVER b_reg_28_:Q
*CELL fd1eqd1_hd
*C2_R1_C1 5.205e-03 9.100e-03 5.205e-03 
*LOADS
*RC U588:B 9.473e-05
*RC U1579:B 9.473e-05
*END

*R_NET b\[27\] 5.220e-03
*DRIVER b_reg_27_:Q
*CELL fd1eqd1_hd
*C2_R1_C1 2.610e-03 7.370e-03 2.610e-03 
*LOADS
*RC U1547:A 3.847e-05
*END

*R_NET b\[26\] 1.041e-02
*DRIVER b_reg_26_:Q
*CELL fd1eqd1_hd
*C2_R1_C1 5.205e-03 9.100e-03 5.205e-03 
*LOADS
*RC U617:B 9.473e-05
*RC U1571:B 9.473e-05
*END

*R_NET b\[25\] 5.220e-03
*DRIVER b_reg_25_:Q
*CELL fd1eqd1_hd
*C2_R1_C1 2.610e-03 7.370e-03 2.610e-03 
*LOADS
*RC U1545:A 3.847e-05
*END

*R_NET b\[24\] 1.029e-02
*DRIVER b_reg_24_:Q
*CELL fd1eqd1_hd
*C2_R1_C1 5.145e-03 9.100e-03 5.145e-03 
*LOADS
*RC U578:A 9.364e-05
*RC U1562:A 9.364e-05
*END

*R_NET b\[23\] 1.669e-02
*DRIVER b_reg_23_:Q
*CELL fd1eqd1_hd
*C2_R1_C1 8.345e-03 9.460e-03 8.345e-03 
*LOADS
*RC U578:B 1.579e-04
*RC U1559:A 1.579e-04
*RC U1562:B 1.579e-04
*END

*R_NET b\[22\] 5.800e-03
*DRIVER b_reg_22_:Q
*CELL fd1eqd1_hd
*C2_R1_C1 2.900e-03 7.370e-03 2.900e-03 
*LOADS
*RC U1553:B 4.275e-05
*END

*R_NET b\[21\] 5.800e-03
*DRIVER b_reg_21_:Q
*CELL fd1eqd1_hd
*C2_R1_C1 2.900e-03 7.370e-03 2.900e-03 
*LOADS
*RC U1324:B 4.275e-05
*END

*R_NET b\[20\] 5.800e-03
*DRIVER b_reg_20_:Q
*CELL fd1eqd1_hd
*C2_R1_C1 2.900e-03 7.370e-03 2.900e-03 
*LOADS
*RC U1322:B 4.275e-05
*END

*R_NET b\[19\] 5.800e-03
*DRIVER b_reg_19_:Q
*CELL fd1eqd1_hd
*C2_R1_C1 2.900e-03 7.370e-03 2.900e-03 
*LOADS
*RC U1320:B 4.275e-05
*END

*R_NET b\[18\] 5.800e-03
*DRIVER b_reg_18_:Q
*CELL fd1eqd1_hd
*C2_R1_C1 2.900e-03 7.370e-03 2.900e-03 
*LOADS
*RC U1318:B 4.275e-05
*END

*R_NET b\[17\] 5.800e-03
*DRIVER b_reg_17_:Q
*CELL fd1eqd1_hd
*C2_R1_C1 2.900e-03 7.370e-03 2.900e-03 
*LOADS
*RC U1316:B 4.275e-05
*END

*R_NET b\[16\] 5.800e-03
*DRIVER b_reg_16_:Q
*CELL fd1eqd1_hd
*C2_R1_C1 2.900e-03 7.370e-03 2.900e-03 
*LOADS
*RC U1314:B 4.275e-05
*END

*R_NET b\[15\] 5.800e-03
*DRIVER b_reg_15_:Q
*CELL fd1eqd1_hd
*C2_R1_C1 2.900e-03 7.370e-03 2.900e-03 
*LOADS
*RC U1312:B 4.275e-05
*END

*R_NET b\[14\] 5.800e-03
*DRIVER b_reg_14_:Q
*CELL fd1eqd1_hd
*C2_R1_C1 2.900e-03 7.370e-03 2.900e-03 
*LOADS
*RC U1310:B 4.275e-05
*END

*R_NET b\[13\] 5.800e-03
*DRIVER b_reg_13_:Q
*CELL fd1eqd1_hd
*C2_R1_C1 2.900e-03 7.370e-03 2.900e-03 
*LOADS
*RC U1308:B 4.275e-05
*END

*R_NET b\[12\] 5.800e-03
*DRIVER b_reg_12_:Q
*CELL fd1eqd1_hd
*C2_R1_C1 2.900e-03 7.370e-03 2.900e-03 
*LOADS
*RC U1306:B 4.275e-05
*END

*R_NET b\[11\] 5.800e-03
*DRIVER b_reg_11_:Q
*CELL fd1eqd1_hd
*C2_R1_C1 2.900e-03 7.370e-03 2.900e-03 
*LOADS
*RC U1304:B 4.275e-05
*END

*R_NET b\[10\] 5.800e-03
*DRIVER b_reg_10_:Q
*CELL fd1eqd1_hd
*C2_R1_C1 2.900e-03 7.370e-03 2.900e-03 
*LOADS
*RC U1302:B 4.275e-05
*END

*R_NET b\[9\] 5.800e-03
*DRIVER b_reg_9_:Q
*CELL fd1eqd1_hd
*C2_R1_C1 2.900e-03 7.370e-03 2.900e-03 
*LOADS
*RC U1300:B 4.275e-05
*END

*R_NET b\[8\] 5.800e-03
*DRIVER b_reg_8_:Q
*CELL fd1eqd1_hd
*C2_R1_C1 2.900e-03 7.370e-03 2.900e-03 
*LOADS
*RC U1298:B 4.275e-05
*END

*R_NET b\[7\] 5.800e-03
*DRIVER b_reg_7_:Q
*CELL fd1eqd1_hd
*C2_R1_C1 2.900e-03 7.370e-03 2.900e-03 
*LOADS
*RC U1296:B 4.275e-05
*END

*R_NET b\[6\] 5.800e-03
*DRIVER b_reg_6_:Q
*CELL fd1eqd1_hd
*C2_R1_C1 2.900e-03 7.370e-03 2.900e-03 
*LOADS
*RC U1294:B 4.275e-05
*END

*R_NET b\[5\] 5.800e-03
*DRIVER b_reg_5_:Q
*CELL fd1eqd1_hd
*C2_R1_C1 2.900e-03 7.370e-03 2.900e-03 
*LOADS
*RC U1292:B 4.275e-05
*END

*R_NET b\[4\] 5.800e-03
*DRIVER b_reg_4_:Q
*CELL fd1eqd1_hd
*C2_R1_C1 2.900e-03 7.370e-03 2.900e-03 
*LOADS
*RC U1290:B 4.275e-05
*END

*R_NET b\[3\] 5.800e-03
*DRIVER b_reg_3_:Q
*CELL fd1eqd1_hd
*C2_R1_C1 2.900e-03 7.370e-03 2.900e-03 
*LOADS
*RC U1288:B 4.275e-05
*END

*R_NET b\[2\] 5.800e-03
*DRIVER b_reg_2_:Q
*CELL fd1eqd1_hd
*C2_R1_C1 2.900e-03 7.370e-03 2.900e-03 
*LOADS
*RC U1286:B 4.275e-05
*END

*R_NET b\[1\] 5.800e-03
*DRIVER b_reg_1_:Q
*CELL fd1eqd1_hd
*C2_R1_C1 2.900e-03 7.370e-03 2.900e-03 
*LOADS
*RC U1284:B 4.275e-05
*END

*R_NET b\[0\] 5.800e-03
*DRIVER b_reg_0_:Q
*CELL fd1eqd1_hd
*C2_R1_C1 2.900e-03 7.370e-03 2.900e-03 
*LOADS
*RC U1282:B 4.275e-05
*END

*R_NET a_e\[9\] 2.662e-02
*DRIVER a_e_reg_9_:Q
*CELL fd1qd1_hd
*C2_R1_C1 1.331e-02 1.549e-02 1.331e-02 
*LOADS
*RC U527:B 4.123e-04
*RC U648:B 4.123e-04
*RC U1059:A 4.123e-04
*RC U1131:B 4.123e-04
*RC U1213:C 4.123e-04
*END

*R_NET a_e\[8\] 3.289e-02
*DRIVER a_e_reg_8_:Q
*CELL fd1qd1_hd
*C2_R1_C1 1.644e-02 1.674e-02 1.644e-02 
*LOADS
*RC U1029:A 5.506e-04
*RC U1056:B 5.506e-04
*RC U1131:C 5.506e-04
*RC U1212:A 5.506e-04
*RC U1219:A 5.506e-04
*RC U1227:A 5.506e-04
*END

*R_NET a_e\[7\] 2.257e-02
*DRIVER a_e_reg_7_:Q
*CELL fd1qd1_hd
*C2_R1_C1 1.128e-02 1.094e-02 1.128e-02 
*LOADS
*RC U897:A 2.469e-04
*RC U982:A 2.469e-04
*RC U1106:B 2.469e-04
*RC U1218:A 2.469e-04
*END

*R_NET a_e\[6\] 3.341e-02
*DRIVER a_e_reg_6_:Q
*CELL fd1qd1_hd
*C2_R1_C1 1.670e-02 1.674e-02 1.670e-02 
*LOADS
*RC U591:A 5.593e-04
*RC U1004:B 5.593e-04
*RC U1030:A 5.593e-04
*RC U1105:B 5.593e-04
*RC U1613:C 5.593e-04
*RC U1614:A 5.593e-04
*END

*R_NET a_e\[5\] 1.530e-02
*DRIVER a_e_reg_5_:Q
*CELL fd1qd1_hd
*C2_R1_C1 7.650e-03 9.460e-03 7.650e-03 
*LOADS
*RC U752:B 1.447e-04