*SPEF "IEEE 1481-1999"
*DESIGN "khu_sensor_pad"
*DATE "Wed May  6 18:44:45 2020"
*VENDOR "SYNOPSYS INC"
*PROGRAM "Synopsys Design Compiler cmos"
*VERSION "F-2011.09-SP5-3"
*DESIGN_FLOW "SYNTHESIS"
*DIVIDER /
*DELIMITER :
*BUS_DELIMITER []
*T_UNIT 1.0 NS
*C_UNIT 1.0 PF
*R_UNIT 1.0 KOHM
*L_UNIT 1.0 HENRY

*PORTS

i_CLK I *L 0.000e+00 *S 4.490e-01 2.843e-01 *D ivtd1_hd 
CLK_OUT O *L 1.035e-02 *S 4.593e-04 8.402e-04 
i_RSTN I *L 0.000e+00 *S 0.000e+00 0.000e+00 *D ivtd1_hd 
i_CLK_HALF I *L 0.000e+00 *S 4.490e-01 2.843e-01 *D ivtd1_hd 
CLK_HALF_OUT O *L 1.035e-02 *S 4.593e-04 8.402e-04 
UART_RXD I *L 0.000e+00 *S 1.667e+01 9.531e+00 *D ivtd1_hd 
UART_TXD O *L 1.035e-02 *S 6.144e-04 4.833e-04 
MPR121_SCL B *L 1.035e-02 *S 9.154e-02 8.744e-02 *D ivtd1_hd 
MPR121_SDA B *L 1.035e-02 *S 9.154e-02 8.744e-02 *D ivtd1_hd 
ADS1292_SCLK O *L 1.035e-02 *S 6.144e-04 4.833e-04 
ADS1292_MISO I *L 0.000e+00 *S 1.667e+01 9.531e+00 *D ivtd1_hd 
ADS1292_MOSI O *L 1.035e-02 *S 6.144e-04 4.833e-04 
ADS1292_DRDY I *L 0.000e+00 *S 1.667e+01 9.531e+00 *D ivtd1_hd 
ADS1292_RESET O *L 1.035e-02 *S 6.144e-04 4.833e-04 
ADS1292_START O *L 1.035e-02 *S 6.144e-04 4.833e-04 
ADS1292_CSN O *L 1.035e-02 *S 6.144e-04 4.833e-04 

*R_NET i_CLK 5.405e-02
*DRIVER i_CLK
*CELL ivtd1_hd
*C2_R1_C1 2.703e-02 7.370e-03 2.703e-02 
*LOADS
*RC pad29:PADA 3.983e-04
*END

*R_NET CLK_OUT 1.350e-02
*DRIVER pad29:PADY
*CELL phsoscm3
*C2_R1_C1 6.750e-03 7.370e-03 6.750e-03 
*LOADS
*RC CLK_OUT 9.950e-05
*END

*R_NET i_CLK_HALF 5.405e-02
*DRIVER i_CLK_HALF
*CELL ivtd1_hd
*C2_R1_C1 2.703e-02 7.370e-03 2.703e-02 
*LOADS
*RC pad33:PADA 3.983e-04
*END

*R_NET CLK_HALF_OUT 1.350e-02
*DRIVER pad33:PADY
*CELL phsoscm3
*C2_R1_C1 6.750e-03 7.370e-03 6.750e-03 
*LOADS
*RC CLK_HALF_OUT 9.950e-05
*END

*R_NET UART_RXD 2.095e+00
*DRIVER UART_RXD
*CELL ivtd1_hd
*C2_R1_C1 1.047e+00 7.370e-03 1.047e+00 
*LOADS
*RC pad121:PAD 1.544e-02
*END

*R_NET UART_TXD 1.350e-02
*DRIVER pad133:PAD
*CELL phob12
*C2_R1_C1 6.750e-03 7.370e-03 6.750e-03 
*LOADS
*RC UART_TXD 9.950e-05
*END

*R_NET MPR121_SCL 2.008e+00
*DRIVER MPR121_SCL
*CELL ivtd1_hd
*C2_R1_C1 1.004e+00 7.370e-03 1.004e+00 
*LOADS
*RC pad:PAD 1.480e-02
*DRIVER pad:PAD
*CELL phbct12
*C2_R1_C1 1.004e+00 7.370e-03 1.004e+00 
*LOADS
*RC MPR121_SCL 1.480e-02
*END

*R_NET MPR121_SDA 2.008e+00
*DRIVER MPR121_SDA
*CELL ivtd1_hd
*C2_R1_C1 1.004e+00 7.370e-03 1.004e+00 
*LOADS
*RC pad82:PAD 1.480e-02
*DRIVER pad82:PAD
*CELL phbct12
*C2_R1_C1 1.004e+00 7.370e-03 1.004e+00 
*LOADS
*RC MPR121_SDA 1.480e-02
*END

*R_NET ADS1292_SCLK 1.350e-02
*DRIVER pad165:PAD
*CELL phob12
*C2_R1_C1 6.750e-03 7.370e-03 6.750e-03 
*LOADS
*RC ADS1292_SCLK 9.950e-05
*END

*R_NET ADS1292_MISO 2.095e+00
*DRIVER ADS1292_MISO
*CELL ivtd1_hd
*C2_R1_C1 1.047e+00 7.370e-03 1.047e+00 
*LOADS
*RC pad171:PAD 1.544e-02
*END

*R_NET ADS1292_MOSI 1.350e-02
*DRIVER pad176:PAD
*CELL phob12
*C2_R1_C1 6.750e-03 7.370e-03 6.750e-03 
*LOADS
*RC ADS1292_MOSI 9.950e-05
*END

*R_NET ADS1292_DRDY 2.095e+00
*DRIVER ADS1292_DRDY
*CELL ivtd1_hd
*C2_R1_C1 1.047e+00 7.370e-03 1.047e+00 
*LOADS
*RC pad186:PAD 1.544e-02
*END

*R_NET ADS1292_RESET 1.350e-02
*DRIVER pad196:PAD
*CELL phob12
*C2_R1_C1 6.750e-03 7.370e-03 6.750e-03 
*LOADS
*RC ADS1292_RESET 9.950e-05
*END

*R_NET ADS1292_START 1.350e-02
*DRIVER pad197:PAD
*CELL phob12
*C2_R1_C1 6.750e-03 7.370e-03 6.750e-03 
*LOADS
*RC ADS1292_START 9.950e-05
*END

*R_NET ADS1292_CSN 1.350e-02
*DRIVER pad198:PAD
*CELL phob12
*C2_R1_C1 6.750e-03 7.370e-03 6.750e-03 
*LOADS
*RC ADS1292_CSN 9.950e-05
*END

*R_NET w_clk_p 4.002e-01
*DRIVER pad29:YN
*CELL phsoscm3
*C2_R1_C1 2.001e-01 7.031e-02 2.001e-01 
*LOADS
*RC khu_sensor_top/mpr121_controller/i2c_master/phy_rx_data_reg_reg:CK 2.814e-02
*RC khu_sensor_top/mpr121_controller/i2c_master/phy_state_reg_reg_2_:CK 2.814e-02
*RC khu_sensor_top/mpr121_controller/i2c_master/sda_i_reg_reg:CK 2.814e-02
*RC khu_sensor_top/mpr121_controller/i2c_master/delay_reg_reg_2_:CK 2.814e-02
*RC khu_sensor_top/mpr121_controller/i2c_master/delay_reg_reg_1_:CK 2.814e-02
*RC khu_sensor_top/mpr121_controller/i2c_master/delay_reg_reg_0_:CK 2.814e-02
*RC khu_sensor_top/mpr121_controller/i2c_master/delay_reg_reg_5_:CK 2.814e-02
*RC khu_sensor_top/mpr121_controller/i2c_master/delay_reg_reg_4_:CK 2.814e-02
*RC khu_sensor_top/mpr121_controller/i2c_master/delay_reg_reg_6_:CK 2.814e-02
*RC khu_sensor_top/mpr121_controller/i2c_master/delay_reg_reg_3_:CK 2.814e-02
*RC khu_sensor_top/mpr121_controller/i2c_master/delay_reg_reg_9_:CK 2.814e-02
*RC khu_sensor_top/mpr121_controller/i2c_master/delay_reg_reg_7_:CK 2.814e-02
*RC khu_sensor_top/mpr121_controller/i2c_master/delay_reg_reg_10_:CK 2.814e-02
*RC khu_sensor_top/mpr121_controller/i2c_master/delay_reg_reg_8_:CK 2.814e-02
*RC khu_sensor_top/mpr121_controller/i2c_master/cmd_ready_reg_reg:CK 2.814e-02
*RC khu_sensor_top/mpr121_controller/i2c_master/bit_count_reg_reg_2_:CK 2.814e-02
*RC khu_sensor_top/mpr121_controller/i2c_master/state_reg_reg_3_:CK 2.814e-02
*RC khu_sensor_top/mpr121_controller/i2c_master/state_reg_reg_2_:CK 2.814e-02
*RC khu_sensor_top/mpr121_controller/i2c_master/state_reg_reg_1_:CK 2.814e-02
*RC khu_sensor_top/mpr121_controller/i2c_master/delay_reg_reg_13_:CK 2.814e-02
*RC khu_sensor_top/mpr121_controller/i2c_master/delay_reg_reg_11_:CK 2.814e-02
*RC khu_sensor_top/mpr121_controller/i2c_master/delay_reg_reg_14_:CK 2.814e-02
*RC khu_sensor_top/mpr121_controller/i2c_master/delay_reg_reg_12_:CK 2.814e-02
*RC khu_sensor_top/mpr121_controller/i2c_master/state_reg_reg_0_:CK 2.814e-02
*RC khu_sensor_top/mpr121_controller/i2c_master/phy_state_reg_reg_1_:CK 2.814e-02
*RC khu_sensor_top/mpr121_controller/i2c_master/phy_state_reg_reg_3_:CK 2.814e-02
*RC khu_sensor_top/mpr121_controller/i2c_master/bus_active_reg_reg:CK 2.814e-02
*RC khu_sensor_top/mpr121_controller/i2c_master/mode_stop_reg_reg:CK 2.814e-02
*RC khu_sensor_top/mpr121_controller/i2c_master/phy_state_reg_reg_0_:CK 2.814e-02
*RC khu_sensor_top/mpr121_controller/i2c_master/bit_count_reg_reg_3_:CK 2.814e-02
*RC khu_sensor_top/mpr121_controller/i2c_master/delay_reg_reg_15_:CK 2.814e-02
*RC khu_sensor_top/mpr121_controller/i2c_master/delay_reg_reg_16_:CK 2.814e-02
*RC khu_sensor_top/mpr121_controller/i2c_master/delay_scl_reg_reg:CK 2.814e-02
*RC khu_sensor_top/mpr121_controller/i2c_master/mode_write_multiple_reg_reg:CK 2.814e-02
*RC khu_sensor_top/mpr121_controller/i2c_master/last_reg_reg:CK 2.814e-02
*RC khu_sensor_top/mpr121_controller/i2c_master/data_in_ready_reg_reg:CK 2.814e-02
*RC khu_sensor_top/mpr121_controller/i2c_master/data_out_valid_reg_reg:CK 2.814e-02
*RC khu_sensor_top/mpr121_controller/i2c_master/data_reg_reg_1_:CK 2.814e-02
*RC khu_sensor_top/mpr121_controller/i2c_master/data_reg_reg_2_:CK 2.814e-02
*RC khu_sensor_top/mpr121_controller/i2c_master/data_reg_reg_0_:CK 2.814e-02
*RC khu_sensor_top/mpr121_controller/i2c_master/data_reg_reg_6_:CK 2.814e-02
*RC khu_sensor_top/mpr121_controller/i2c_master/data_reg_reg_4_:CK 2.814e-02
*RC khu_sensor_top/mpr121_controller/i2c_master/data_out_reg_reg_0_:CK 2.814e-02
*RC khu_sensor_top/mpr121_controller/i2c_master/data_out_reg_reg_1_:CK 2.814e-02
*RC khu_sensor_top/mpr121_controller/i2c_master/data_out_reg_reg_2_:CK 2.814e-02
*RC khu_sensor_top/mpr121_controller/i2c_master/data_out_reg_reg_3_:CK 2.814e-02
*RC khu_sensor_top/mpr121_controller/i2c_master/data_out_reg_reg_4_:CK 2.814e-02
*RC khu_sensor_top/mpr121_controller/i2c_master/data_out_reg_reg_5_:CK 2.814e-02
*RC khu_sensor_top/mpr121_controller/i2c_master/data_out_reg_reg_6_:CK 2.814e-02
*RC khu_sensor_top/mpr121_controller/i2c_master/data_out_reg_reg_7_:CK 2.814e-02
*RC khu_sensor_top/mpr121_controller/i2c_master/sda_o_reg_reg:CK 2.814e-02
*RC khu_sensor_top/mpr121_controller/i2c_master/bus_control_reg_reg:CK 2.814e-02
*RC khu_sensor_top/mpr121_controller/i2c_master/mode_read_reg_reg:CK 2.814e-02
*RC khu_sensor_top/mpr121_controller/i2c_master/missed_ack_reg_reg:CK 2.814e-02
*RC khu_sensor_top/mpr121_controller/i2c_master/data_reg_reg_7_:CK 2.814e-02
*RC khu_sensor_top/mpr121_controller/i2c_master/data_reg_reg_3_:CK 2.814e-02
*RC khu_sensor_top/mpr121_controller/i2c_master/data_reg_reg_5_:CK 2.814e-02
*RC khu_sensor_top/mpr121_controller/i2c_master/last_sda_i_reg_reg:CK 2.814e-02
*RC khu_sensor_top/mpr121_controller/i2c_master/scl_i_reg_reg:CK 2.814e-02
*RC khu_sensor_top/mpr121_controller/i2c_master/bit_count_reg_reg_1_:CK 2.814e-02
*RC khu_sensor_top/mpr121_controller/i2c_master/bit_count_reg_reg_0_:CK 2.814e-02
*RC khu_sensor_top/mpr121_controller/i2c_master/scl_o_reg_reg:CK 2.814e-02
*RC khu_sensor_top/mpr121_controller/r_pstate_reg_5_:CK 2.814e-02
*RC khu_sensor_top/mpr121_controller/r_i2c_data_in_reg_7_:CK 2.814e-02
*RC khu_sensor_top/mpr121_controller/r_i2c_reg_data_in_reg_7_:CK 2.814e-02
*RC khu_sensor_top/mpr121_controller/r_pstate_reg_0_:CK 2.814e-02
*RC khu_sensor_top/mpr121_controller/r_lstate_reg_1_:CK 2.814e-02
*RC khu_sensor_top/mpr121_controller/r_pstate_reg_2_:CK 2.814e-02
*RC khu_sensor_top/mpr121_controller/r_pstate_reg_3_:CK 2.814e-02
*RC khu_sensor_top/mpr121_controller/r_i2c_read_reg:CK 2.814e-02
*RC khu_sensor_top/mpr121_controller/r_i2c_cmd_valid_reg:CK 2.814e-02
*RC khu_sensor_top/mpr121_controller/r_i2c_write_multiple_reg:CK 2.814e-02
*RC khu_sensor_top/mpr121_controller/r_i2c_write_reg:CK 2.814e-02
*RC khu_sensor_top/mpr121_controller/r_pstate_reg_1_:CK 2.814e-02
*RC khu_sensor_top/mpr121_controller/r_pstate_reg_4_:CK 2.814e-02
*RC khu_sensor_top/mpr121_controller/r_i2c_data_out_ready_reg:CK 2.814e-02
*RC khu_sensor_top/mpr121_controller/r_i2c_start_reg:CK 2.814e-02
*RC khu_sensor_top/mpr121_controller/r_clk_counter_reg_1_:CK 2.814e-02
*RC khu_sensor_top/mpr121_controller/r_clk_counter_reg_0_:CK 2.814e-02
*RC khu_sensor_top/mpr121_controller/r_clk_counter_reg_3_:CK 2.814e-02
*RC khu_sensor_top/mpr121_controller/r_clk_counter_reg_5_:CK 2.814e-02
*RC khu_sensor_top/mpr121_controller/o_MPR121_DATA_OUT_reg_7_:CK 2.814e-02
*RC khu_sensor_top/mpr121_controller/o_MPR121_DATA_OUT_reg_6_:CK 2.814e-02
*RC khu_sensor_top/mpr121_controller/o_MPR121_DATA_OUT_reg_5_:CK 2.814e-02
*RC khu_sensor_top/mpr121_controller/o_MPR121_DATA_OUT_reg_4_:CK 2.814e-02
*RC khu_sensor_top/mpr121_controller/o_MPR121_DATA_OUT_reg_3_:CK 2.814e-02
*RC khu_sensor_top/mpr121_controller/o_MPR121_DATA_OUT_reg_2_:CK 2.814e-02
*RC khu_sensor_top/mpr121_controller/o_MPR121_DATA_OUT_reg_1_:CK 2.814e-02
*RC khu_sensor_top/mpr121_controller/o_MPR121_DATA_OUT_reg_0_:CK 2.814e-02
*RC khu_sensor_top/mpr121_controller/o_MPR121_BUSY_reg:CK 2.814e-02
*RC khu_sensor_top/mpr121_controller/o_MPR121_INIT_SET_reg:CK 2.814e-02
*RC khu_sensor_top/mpr121_controller/r_i2c_data_in_valid_reg:CK 2.814e-02
*RC khu_sensor_top/mpr121_controller/r_clk_counter_reg_7_:CK 2.814e-02
*RC khu_sensor_top/mpr121_controller/r_clk_counter_reg_6_:CK 2.814e-02
*RC khu_sensor_top/mpr121_controller/r_clk_counter_reg_8_:CK 2.814e-02
*RC khu_sensor_top/mpr121_controller/r_clk_counter_reg_2_:CK 2.814e-02
*RC khu_sensor_top/mpr121_controller/r_clk_counter_reg_4_:CK 2.814e-02
*RC khu_sensor_top/mpr121_controller/r_lstate_reg_0_:CK 2.814e-02
*RC khu_sensor_top/mpr121_controller/r_i2c_data_in_last_reg:CK 2.814e-02
*RC khu_sensor_top/mpr121_controller/r_i2c_data_in_reg_1_:CK 2.814e-02
*RC khu_sensor_top/mpr121_controller/r_i2c_data_in_reg_5_:CK 2.814e-02
*RC khu_sensor_top/mpr121_controller/r_i2c_data_in_reg_6_:CK 2.814e-02
*RC khu_sensor_top/mpr121_controller/r_i2c_data_in_reg_2_:CK 2.814e-02
*RC khu_sensor_top/mpr121_controller/r_i2c_data_in_reg_3_:CK 2.814e-02
*RC khu_sensor_top/mpr121_controller/r_i2c_data_in_reg_4_:CK 2.814e-02
*RC khu_sensor_top/mpr121_controller/r_i2c_data_in_reg_0_:CK 2.814e-02
*RC khu_sensor_top/mpr121_controller/r_i2c_reg_data_in_reg_0_:CK 2.814e-02
*RC khu_sensor_top/mpr121_controller/r_i2c_reg_addr_reg_0_:CK 2.814e-02
*RC khu_sensor_top/mpr121_controller/r_i2c_reg_addr_reg_7_:CK 2.814e-02
*RC khu_sensor_top/mpr121_controller/r_i2c_reg_data_in_reg_1_:CK 2.814e-02
*RC khu_sensor_top/mpr121_controller/r_i2c_reg_data_in_reg_5_:CK 2.814e-02
*RC khu_sensor_top/mpr121_controller/r_i2c_reg_data_in_reg_6_:CK 2.814e-02
*RC khu_sensor_top/mpr121_controller/r_i2c_reg_addr_reg_1_:CK 2.814e-02
*RC khu_sensor_top/mpr121_controller/r_i2c_reg_addr_reg_2_:CK 2.814e-02
*RC khu_sensor_top/mpr121_controller/r_i2c_reg_addr_reg_3_:CK 2.814e-02
*RC khu_sensor_top/mpr121_controller/r_i2c_reg_addr_reg_4_:CK 2.814e-02
*RC khu_sensor_top/mpr121_controller/r_i2c_reg_addr_reg_5_:CK 2.814e-02
*RC khu_sensor_top/mpr121_controller/r_i2c_reg_addr_reg_6_:CK 2.814e-02
*RC khu_sensor_top/mpr121_controller/r_i2c_reg_data_in_reg_2_:CK 2.814e-02
*RC khu_sensor_top/mpr121_controller/r_i2c_reg_data_in_reg_3_:CK 2.814e-02
*RC khu_sensor_top/mpr121_controller/r_i2c_reg_data_in_reg_4_:CK 2.814e-02
*RC khu_sensor_top/ads1292_controller:i_CLK 2.814e-02
*RC khu_sensor_top/ads1292_filter:i_CLK 2.814e-02
*DRIVER khu_sensor_top/ads1292_controller:i_CLK
*CELL ads1292_controller
*C2_R1_C1 2.001e-01 7.031e-02 2.001e-01 
*LOADS
*RC khu_sensor_top/mpr121_controller/i2c_master/phy_rx_data_reg_reg:CK 2.814e-02
*RC khu_sensor_top/mpr121_controller/i2c_master/phy_state_reg_reg_2_:CK 2.814e-02
*RC khu_sensor_top/mpr121_controller/i2c_master/sda_i_reg_reg:CK 2.814e-02
*RC khu_sensor_top/mpr121_controller/i2c_master/delay_reg_reg_2_:CK 2.814e-02
*RC khu_sensor_top/mpr121_controller/i2c_master/delay_reg_reg_1_:CK 2.814e-02
*RC khu_sensor_top/mpr121_controller/i2c_master/delay_reg_reg_0_:CK 2.814e-02
*RC khu_sensor_top/mpr121_controller/i2c_master/delay_reg_reg_5_:CK 2.814e-02
*RC khu_sensor_top/mpr121_controller/i2c_master/delay_reg_reg_4_:CK 2.814e-02
*RC khu_sensor_top/mpr121_controller/i2c_master/delay_reg_reg_6_:CK 2.814e-02
*RC khu_sensor_top/mpr121_controller/i2c_master/delay_reg_reg_3_:CK 2.814e-02
*RC khu_sensor_top/mpr121_controller/i2c_master/delay_reg_reg_9_:CK 2.814e-02
*RC khu_sensor_top/mpr121_controller/i2c_master/delay_reg_reg_7_:CK 2.814e-02
*RC khu_sensor_top/mpr121_controller/i2c_master/delay_reg_reg_10_:CK 2.814e-02
*RC khu_sensor_top/mpr121_controller/i2c_master/delay_reg_reg_8_:CK 2.814e-02
*RC khu_sensor_top/mpr121_controller/i2c_master/cmd_ready_reg_reg:CK 2.814e-02
*RC khu_sensor_top/mpr121_controller/i2c_master/bit_count_reg_reg_2_:CK 2.814e-02
*RC khu_sensor_top/mpr121_controller/i2c_master/state_reg_reg_3_:CK 2.814e-02
*RC khu_sensor_top/mpr121_controller/i2c_master/state_reg_reg_2_:CK 2.814e-02
*RC khu_sensor_top/mpr121_controller/i2c_master/state_reg_reg_1_:CK 2.814e-02
*RC khu_sensor_top/mpr121_controller/i2c_master/delay_reg_reg_13_:CK 2.814e-02
*RC khu_sensor_top/mpr121_controller/i2c_master/delay_reg_reg_11_:CK 2.814e-02
*RC khu_sensor_top/mpr121_controller/i2c_master/delay_reg_reg_14_:CK 2.814e-02
*RC khu_sensor_top/mpr121_controller/i2c_master/delay_reg_reg_12_:CK 2.814e-02
*RC khu_sensor_top/mpr121_controller/i2c_master/state_reg_reg_0_:CK 2.814e-02
*RC khu_sensor_top/mpr121_controller/i2c_master/phy_state_reg_reg_1_:CK 2.814e-02
*RC khu_sensor_top/mpr121_controller/i2c_master/phy_state_reg_reg_3_:CK 2.814e-02
*RC khu_sensor_top/mpr121_controller/i2c_master/bus_active_reg_reg:CK 2.814e-02
*RC khu_sensor_top/mpr121_controller/i2c_master/mode_stop_reg_reg:CK 2.814e-02
*RC khu_sensor_top/mpr121_controller/i2c_master/phy_state_reg_reg_0_:CK 2.814e-02
*RC khu_sensor_top/mpr121_controller/i2c_master/bit_count_reg_reg_3_:CK 2.814e-02
*RC khu_sensor_top/mpr121_controller/i2c_master/delay_reg_reg_15_:CK 2.814e-02
*RC khu_sensor_top/mpr121_controller/i2c_master/delay_reg_reg_16_:CK 2.814e-02
*RC khu_sensor_top/mpr121_controller/i2c_master/delay_scl_reg_reg:CK 2.814e-02
*RC khu_sensor_top/mpr121_controller/i2c_master/mode_write_multiple_reg_reg:CK 2.814e-02
*RC khu_sensor_top/mpr121_controller/i2c_master/last_reg_reg:CK 2.814e-02
*RC khu_sensor_top/mpr121_controller/i2c_master/data_in_ready_reg_reg:CK 2.814e-02
*RC khu_sensor_top/mpr121_controller/i2c_master/data_out_valid_reg_reg:CK 2.814e-02
*RC khu_sensor_top/mpr121_controller/i2c_master/data_reg_reg_1_:CK 2.814e-02
*RC khu_sensor_top/mpr121_controller/i2c_master/data_reg_reg_2_:CK 2.814e-02
*RC khu_sensor_top/mpr121_controller/i2c_master/data_reg_reg_0_:CK 2.814e-02
*RC khu_sensor_top/mpr121_controller/i2c_master/data_reg_reg_6_:CK 2.814e-02
*RC khu_sensor_top/mpr121_controller/i2c_master/data_reg_reg_4_:CK 2.814e-02
*RC khu_sensor_top/mpr121_controller/i2c_master/data_out_reg_reg_0_:CK 2.814e-02
*RC khu_sensor_top/mpr121_controller/i2c_master/data_out_reg_reg_1_:CK 2.814e-02
*RC khu_sensor_top/mpr121_controller/i2c_master/data_out_reg_reg_2_:CK 2.814e-02
*RC khu_sensor_top/mpr121_controller/i2c_master/data_out_reg_reg_3_:CK 2.814e-02
*RC khu_sensor_top/mpr121_controller/i2c_master/data_out_reg_reg_4_:CK 2.814e-02
*RC khu_sensor_top/mpr121_controller/i2c_master/data_out_reg_reg_5_:CK 2.814e-02
*RC khu_sensor_top/mpr121_controller/i2c_master/data_out_reg_reg_6_:CK 2.814e-02
*RC khu_sensor_top/mpr121_controller/i2c_master/data_out_reg_reg_7_:CK 2.814e-02
*RC khu_sensor_top/mpr121_controller/i2c_master/sda_o_reg_reg:CK 2.814e-02
*RC khu_sensor_top/mpr121_controller/i2c_master/bus_control_reg_reg:CK 2.814e-02
*RC khu_sensor_top/mpr121_controller/i2c_master/mode_read_reg_reg:CK 2.814e-02
*RC khu_sensor_top/mpr121_controller/i2c_master/missed_ack_reg_reg:CK 2.814e-02
*RC khu_sensor_top/mpr121_controller/i2c_master/data_reg_reg_7_:CK 2.814e-02
*RC khu_sensor_top/mpr121_controller/i2c_master/data_reg_reg_3_:CK 2.814e-02
*RC khu_sensor_top/mpr121_controller/i2c_master/data_reg_reg_5_:CK 2.814e-02
*RC khu_sensor_top/mpr121_controller/i2c_master/last_sda_i_reg_reg:CK 2.814e-02
*RC khu_sensor_top/mpr121_controller/i2c_master/scl_i_reg_reg:CK 2.814e-02
*RC khu_sensor_top/mpr121_controller/i2c_master/bit_count_reg_reg_1_:CK 2.814e-02
*RC khu_sensor_top/mpr121_controller/i2c_master/bit_count_reg_reg_0_:CK 2.814e-02
*RC khu_sensor_top/mpr121_controller/i2c_master/scl_o_reg_reg:CK 2.814e-02
*RC khu_sensor_top/mpr121_controller/r_pstate_reg_5_:CK 2.814e-02
*RC khu_sensor_top/mpr121_controller/r_i2c_data_in_reg_7_:CK 2.814e-02
*RC khu_sensor_top/mpr121_controller/r_i2c_reg_data_in_reg_7_:CK 2.814e-02
*RC khu_sensor_top/mpr121_controller/r_pstate_reg_0_:CK 2.814e-02
*RC khu_sensor_top/mpr121_controller/r_lstate_reg_1_:CK 2.814e-02
*RC khu_sensor_top/mpr121_controller/r_pstate_reg_2_:CK 2.814e-02
*RC khu_sensor_top/mpr121_controller/r_pstate_reg_3_:CK 2.814e-02
*RC khu_sensor_top/mpr121_controller/r_i2c_read_reg:CK 2.814e-02
*RC khu_sensor_top/mpr121_controller/r_i2c_cmd_valid_reg:CK 2.814e-02
*RC khu_sensor_top/mpr121_controller/r_i2c_write_multiple_reg:CK 2.814e-02
*RC khu_sensor_top/mpr121_controller/r_i2c_write_reg:CK 2.814e-02
*RC khu_sensor_top/mpr121_controller/r_pstate_reg_1_:CK 2.814e-02
*RC khu_sensor_top/mpr121_controller/r_pstate_reg_4_:CK 2.814e-02
*RC khu_sensor_top/mpr121_controller/r_i2c_data_out_ready_reg:CK 2.814e-02
*RC khu_sensor_top/mpr121_controller/r_i2c_start_reg:CK 2.814e-02
*RC khu_sensor_top/mpr121_controller/r_clk_counter_reg_1_:CK 2.814e-02
*RC khu_sensor_top/mpr121_controller/r_clk_counter_reg_0_:CK 2.814e-02
*RC khu_sensor_top/mpr121_controller/r_clk_counter_reg_3_:CK 2.814e-02
*RC khu_sensor_top/mpr121_controller/r_clk_counter_reg_5_:CK 2.814e-02
*RC khu_sensor_top/mpr121_controller/o_MPR121_DATA_OUT_reg_7_:CK 2.814e-02
*RC khu_sensor_top/mpr121_controller/o_MPR121_DATA_OUT_reg_6_:CK 2.814e-02
*RC khu_sensor_top/mpr121_controller/o_MPR121_DATA_OUT_reg_5_:CK 2.814e-02
*RC khu_sensor_top/mpr121_controller/o_MPR121_DATA_OUT_reg_4_:CK 2.814e-02
*RC khu_sensor_top/mpr121_controller/o_MPR121_DATA_OUT_reg_3_:CK 2.814e-02
*RC khu_sensor_top/mpr121_controller/o_MPR121_DATA_OUT_reg_2_:CK 2.814e-02
*RC khu_sensor_top/mpr121_controller/o_MPR121_DATA_OUT_reg_1_:CK 2.814e-02
*RC khu_sensor_top/mpr121_controller/o_MPR121_DATA_OUT_reg_0_:CK 2.814e-02
*RC khu_sensor_top/mpr121_controller/o_MPR121_BUSY_reg:CK 2.814e-02
*RC khu_sensor_top/mpr121_controller/o_MPR121_INIT_SET_reg:CK 2.814e-02
*RC khu_sensor_top/mpr121_controller/r_i2c_data_in_valid_reg:CK 2.814e-02
*RC khu_sensor_top/mpr121_controller/r_clk_counter_reg_7_:CK 2.814e-02
*RC khu_sensor_top/mpr121_controller/r_clk_counter_reg_6_:CK 2.814e-02
*RC khu_sensor_top/mpr121_controller/r_clk_counter_reg_8_:CK 2.814e-02
*RC khu_sensor_top/mpr121_controller/r_clk_counter_reg_2_:CK 2.814e-02
*RC khu_sensor_top/mpr121_controller/r_clk_counter_reg_4_:CK 2.814e-02
*RC khu_sensor_top/mpr121_controller/r_lstate_reg_0_:CK 2.814e-02
*RC khu_sensor_top/mpr121_controller/r_i2c_data_in_last_reg:CK 2.814e-02
*RC khu_sensor_top/mpr121_controller/r_i2c_data_in_reg_1_:CK 2.814e-02
*RC khu_sensor_top/mpr121_controller/r_i2c_data_in_reg_5_:CK 2.814e-02
*RC khu_sensor_top/mpr121_controller/r_i2c_data_in_reg_6_:CK 2.814e-02
*RC khu_sensor_top/mpr121_controller/r_i2c_data_in_reg_2_:CK 2.814e-02
*RC khu_sensor_top/mpr121_controller/r_i2c_data_in_reg_3_:CK 2.814e-02
*RC khu_sensor_top/mpr121_controller/r_i2c_data_in_reg_4_:CK 2.814e-02
*RC khu_sensor_top/mpr121_controller/r_i2c_data_in_reg_0_:CK 2.814e-02
*RC khu_sensor_top/mpr121_controller/r_i2c_reg_data_in_reg_0_:CK 2.814e-02
*RC khu_sensor_top/mpr121_controller/r_i2c_reg_addr_reg_0_:CK 2.814e-02
*RC khu_sensor_top/mpr121_controller/r_i2c_reg_addr_reg_7_:CK 2.814e-02
*RC khu_sensor_top/mpr121_controller/r_i2c_reg_data_in_reg_1_:CK 2.814e-02
*RC khu_sensor_top/mpr121_controller/r_i2c_reg_data_in_reg_5_:CK 2.814e-02
*RC khu_sensor_top/mpr121_controller/r_i2c_reg_data_in_reg_6_:CK 2.814e-02
*RC khu_sensor_top/mpr121_controller/r_i2c_reg_addr_reg_1_:CK 2.814e-02
*RC khu_sensor_top/mpr121_controller/r_i2c_reg_addr_reg_2_:CK 2.814e-02
*RC khu_sensor_top/mpr121_controller/r_i2c_reg_addr_reg_3_:CK 2.814e-02
*RC khu_sensor_top/mpr121_controller/r_i2c_reg_addr_reg_4_:CK 2.814e-02
*RC khu_sensor_top/mpr121_controller/r_i2c_reg_addr_reg_5_:CK 2.814e-02
*RC khu_sensor_top/mpr121_controller/r_i2c_reg_addr_reg_6_:CK 2.814e-02
*RC khu_sensor_top/mpr121_controller/r_i2c_reg_data_in_reg_2_:CK 2.814e-02
*RC khu_sensor_top/mpr121_controller/r_i2c_reg_data_in_reg_3_:CK 2.814e-02
*RC khu_sensor_top/mpr121_controller/r_i2c_reg_data_in_reg_4_:CK 2.814e-02
*RC khu_sensor_top/ads1292_filter:i_CLK 2.814e-02
*DRIVER khu_sensor_top/ads1292_filter:i_CLK
*CELL ads1292_filter
*C2_R1_C1 2.001e-01 7.031e-02 2.001e-01 
*LOADS
*RC khu_sensor_top/mpr121_controller/i2c_master/phy_rx_data_reg_reg:CK 2.814e-02
*RC khu_sensor_top/mpr121_controller/i2c_master/phy_state_reg_reg_2_:CK 2.814e-02
*RC khu_sensor_top/mpr121_controller/i2c_master/sda_i_reg_reg:CK 2.814e-02
*RC khu_sensor_top/mpr121_controller/i2c_master/delay_reg_reg_2_:CK 2.814e-02
*RC khu_sensor_top/mpr121_controller/i2c_master/delay_reg_reg_1_:CK 2.814e-02
*RC khu_sensor_top/mpr121_controller/i2c_master/delay_reg_reg_0_:CK 2.814e-02
*RC khu_sensor_top/mpr121_controller/i2c_master/delay_reg_reg_5_:CK 2.814e-02
*RC khu_sensor_top/mpr121_controller/i2c_master/delay_reg_reg_4_:CK 2.814e-02
*RC khu_sensor_top/mpr121_controller/i2c_master/delay_reg_reg_6_:CK 2.814e-02
*RC khu_sensor_top/mpr121_controller/i2c_master/delay_reg_reg_3_:CK 2.814e-02
*RC khu_sensor_top/mpr121_controller/i2c_master/delay_reg_reg_9_:CK 2.814e-02
*RC khu_sensor_top/mpr121_controller/i2c_master/delay_reg_reg_7_:CK 2.814e-02
*RC khu_sensor_top/mpr121_controller/i2c_master/delay_reg_reg_10_:CK 2.814e-02
*RC khu_sensor_top/mpr121_controller/i2c_master/delay_reg_reg_8_:CK 2.814e-02
*RC khu_sensor_top/mpr121_controller/i2c_master/cmd_ready_reg_reg:CK 2.814e-02
*RC khu_sensor_top/mpr121_controller/i2c_master/bit_count_reg_reg_2_:CK 2.814e-02
*RC khu_sensor_top/mpr121_controller/i2c_master/state_reg_reg_3_:CK 2.814e-02
*RC khu_sensor_top/mpr121_controller/i2c_master/state_reg_reg_2_:CK 2.814e-02
*RC khu_sensor_top/mpr121_controller/i2c_master/state_reg_reg_1_:CK 2.814e-02
*RC khu_sensor_top/mpr121_controller/i2c_master/delay_reg_reg_13_:CK 2.814e-02
*RC khu_sensor_top/mpr121_controller/i2c_master/delay_reg_reg_11_:CK 2.814e-02
*RC khu_sensor_top/mpr121_controller/i2c_master/delay_reg_reg_14_:CK 2.814e-02
*RC khu_sensor_top/mpr121_controller/i2c_master/delay_reg_reg_12_:CK 2.814e-02
*RC khu_sensor_top/mpr121_controller/i2c_master/state_reg_reg_0_:CK 2.814e-02
*RC khu_sensor_top/mpr121_controller/i2c_master/phy_state_reg_reg_1_:CK 2.814e-02
*RC khu_sensor_top/mpr121_controller/i2c_master/phy_state_reg_reg_3_:CK 2.814e-02
*RC khu_sensor_top/mpr121_controller/i2c_master/bus_active_reg_reg:CK 2.814e-02
*RC khu_sensor_top/mpr121_controller/i2c_master/mode_stop_reg_reg:CK 2.814e-02
*RC khu_sensor_top/mpr121_controller/i2c_master/phy_state_reg_reg_0_:CK 2.814e-02
*RC khu_sensor_top/mpr121_controller/i2c_master/bit_count_reg_reg_3_:CK 2.814e-02
*RC khu_sensor_top/mpr121_controller/i2c_master/delay_reg_reg_15_:CK 2.814e-02
*RC khu_sensor_top/mpr121_controller/i2c_master/delay_reg_reg_16_:CK 2.814e-02
*RC khu_sensor_top/mpr121_controller/i2c_master/delay_scl_reg_reg:CK 2.814e-02
*RC khu_sensor_top/mpr121_controller/i2c_master/mode_write_multiple_reg_reg:CK 2.814e-02
*RC khu_sensor_top/mpr121_controller/i2c_master/last_reg_reg:CK 2.814e-02
*RC khu_sensor_top/mpr121_controller/i2c_master/data_in_ready_reg_reg:CK 2.814e-02
*RC khu_sensor_top/mpr121_controller/i2c_master/data_out_valid_reg_reg:CK 2.814e-02
*RC khu_sensor_top/mpr121_controller/i2c_master/data_reg_reg_1_:CK 2.814e-02
*RC khu_sensor_top/mpr121_controller/i2c_master/data_reg_reg_2_:CK 2.814e-02
*RC khu_sensor_top/mpr121_controller/i2c_master/data_reg_reg_0_:CK 2.814e-02
*RC khu_sensor_top/mpr121_controller/i2c_master/data_reg_reg_6_:CK 2.814e-02
*RC khu_sensor_top/mpr121_controller/i2c_master/data_reg_reg_4_:CK 2.814e-02
*RC khu_sensor_top/mpr121_controller/i2c_master/data_out_reg_reg_0_:CK 2.814e-02
*RC khu_sensor_top/mpr121_controller/i2c_master/data_out_reg_reg_1_:CK 2.814e-02
*RC khu_sensor_top/mpr121_controller/i2c_master/data_out_reg_reg_2_:CK 2.814e-02
*RC khu_sensor_top/mpr121_controller/i2c_master/data_out_reg_reg_3_:CK 2.814e-02
*RC khu_sensor_top/mpr121_controller/i2c_master/data_out_reg_reg_4_:CK 2.814e-02
*RC khu_sensor_top/mpr121_controller/i2c_master/data_out_reg_reg_5_:CK 2.814e-02
*RC khu_sensor_top/mpr121_controller/i2c_master/data_out_reg_reg_6_:CK 2.814e-02
*RC khu_sensor_top/mpr121_controller/i2c_master/data_out_reg_reg_7_:CK 2.814e-02
*RC khu_sensor_top/mpr121_controller/i2c_master/sda_o_reg_reg:CK 2.814e-02
*RC khu_sensor_top/mpr121_controller/i2c_master/bus_control_reg_reg:CK 2.814e-02
*RC khu_sensor_top/mpr121_controller/i2c_master/mode_read_reg_reg:CK 2.814e-02
*RC khu_sensor_top/mpr121_controller/i2c_master/missed_ack_reg_reg:CK 2.814e-02
*RC khu_sensor_top/mpr121_controller/i2c_master/data_reg_reg_7_:CK 2.814e-02
*RC khu_sensor_top/mpr121_controller/i2c_master/data_reg_reg_3_:CK 2.814e-02
*RC khu_sensor_top/mpr121_controller/i2c_master/data_reg_reg_5_:CK 2.814e-02
*RC khu_sensor_top/mpr121_controller/i2c_master/last_sda_i_reg_reg:CK 2.814e-02
*RC khu_sensor_top/mpr121_controller/i2c_master/scl_i_reg_reg:CK 2.814e-02
*RC khu_sensor_top/mpr121_controller/i2c_master/bit_count_reg_reg_1_:CK 2.814e-02
*RC khu_sensor_top/mpr121_controller/i2c_master/bit_count_reg_reg_0_:CK 2.814e-02
*RC khu_sensor_top/mpr121_controller/i2c_master/scl_o_reg_reg:CK 2.814e-02
*RC khu_sensor_top/mpr121_controller/r_pstate_reg_5_:CK 2.814e-02
*RC khu_sensor_top/mpr121_controller/r_i2c_data_in_reg_7_:CK 2.814e-02
*RC khu_sensor_top/mpr121_controller/r_i2c_reg_data_in_reg_7_:CK 2.814e-02
*RC khu_sensor_top/mpr121_controller/r_pstate_reg_0_:CK 2.814e-02
*RC khu_sensor_top/mpr121_controller/r_lstate_reg_1_:CK 2.814e-02
*RC khu_sensor_top/mpr121_controller/r_pstate_reg_2_:CK 2.814e-02
*RC khu_sensor_top/mpr121_controller/r_pstate_reg_3_:CK 2.814e-02
*RC khu_sensor_top/mpr121_controller/r_i2c_read_reg:CK 2.814e-02
*RC khu_sensor_top/mpr121_controller/r_i2c_cmd_valid_reg:CK 2.814e-02
*RC khu_sensor_top/mpr121_controller/r_i2c_write_multiple_reg:CK 2.814e-02
*RC khu_sensor_top/mpr121_controller/r_i2c_write_reg:CK 2.814e-02
*RC khu_sensor_top/mpr121_controller/r_pstate_reg_1_:CK 2.814e-02
*RC khu_sensor_top/mpr121_controller/r_pstate_reg_4_:CK 2.814e-02
*RC khu_sensor_top/mpr121_controller/r_i2c_data_out_ready_reg:CK 2.814e-02
*RC khu_sensor_top/mpr121_controller/r_i2c_start_reg:CK 2.814e-02
*RC khu_sensor_top/mpr121_controller/r_clk_counter_reg_1_:CK 2.814e-02
*RC khu_sensor_top/mpr121_controller/r_clk_counter_reg_0_:CK 2.814e-02
*RC khu_sensor_top/mpr121_controller/r_clk_counter_reg_3_:CK 2.814e-02
*RC khu_sensor_top/mpr121_controller/r_clk_counter_reg_5_:CK 2.814e-02
*RC khu_sensor_top/mpr121_controller/o_MPR121_DATA_OUT_reg_7_:CK 2.814e-02
*RC khu_sensor_top/mpr121_controller/o_MPR121_DATA_OUT_reg_6_:CK 2.814e-02
*RC khu_sensor_top/mpr121_controller/o_MPR121_DATA_OUT_reg_5_:CK 2.814e-02
*RC khu_sensor_top/mpr121_controller/o_MPR121_DATA_OUT_reg_4_:CK 2.814e-02
*RC khu_sensor_top/mpr121_controller/o_MPR121_DATA_OUT_reg_3_:CK 2.814e-02
*RC khu_sensor_top/mpr121_controller/o_MPR121_DATA_OUT_reg_2_:CK 2.814e-02
*RC khu_sensor_top/mpr121_controller/o_MPR121_DATA_OUT_reg_1_:CK 2.814e-02
*RC khu_sensor_top/mpr121_controller/o_MPR121_DATA_OUT_reg_0_:CK 2.814e-02
*RC khu_sensor_top/mpr121_controller/o_MPR121_BUSY_reg:CK 2.814e-02
*RC khu_sensor_top/mpr121_controller/o_MPR121_INIT_SET_reg:CK 2.814e-02
*RC khu_sensor_top/mpr121_controller/r_i2c_data_in_valid_reg:CK 2.814e-02
*RC khu_sensor_top/mpr121_controller/r_clk_counter_reg_7_:CK 2.814e-02
*RC khu_sensor_top/mpr121_controller/r_clk_counter_reg_6_:CK 2.814e-02
*RC khu_sensor_top/mpr121_controller/r_clk_counter_reg_8_:CK 2.814e-02
*RC khu_sensor_top/mpr121_controller/r_clk_counter_reg_2_:CK 2.814e-02
*RC khu_sensor_top/mpr121_controller/r_clk_counter_reg_4_:CK 2.814e-02
*RC khu_sensor_top/mpr121_controller/r_lstate_reg_0_:CK 2.814e-02
*RC khu_sensor_top/mpr121_controller/r_i2c_data_in_last_reg:CK 2.814e-02
*RC khu_sensor_top/mpr121_controller/r_i2c_data_in_reg_1_:CK 2.814e-02
*RC khu_sensor_top/mpr121_controller/r_i2c_data_in_reg_5_:CK 2.814e-02