*SPEF "IEEE 1481-1999"
*DESIGN "float_multiplier"
*DATE "Mon May  4 19:54:39 2020"
*VENDOR "SYNOPSYS INC"
*PROGRAM "Synopsys Design Compiler cmos"
*VERSION "F-2011.09-SP5-3"
*DESIGN_FLOW "SYNTHESIS"
*DIVIDER /
*DELIMITER :
*BUS_DELIMITER []
*T_UNIT 1.0 NS
*C_UNIT 1.0 PF
*R_UNIT 1.0 KOHM
*L_UNIT 1.0 HENRY

*PORTS

i_A\[31\] I *L 0.000e+00 *S 0.000e+00 0.000e+00 
i_A\[30\] I *L 0.000e+00 *S 0.000e+00 0.000e+00 
i_A\[29\] I *L 0.000e+00 *S 0.000e+00 0.000e+00 
i_A\[28\] I *L 0.000e+00 *S 0.000e+00 0.000e+00 
i_A\[27\] I *L 0.000e+00 *S 0.000e+00 0.000e+00 
i_A\[26\] I *L 0.000e+00 *S 0.000e+00 0.000e+00 
i_A\[25\] I *L 0.000e+00 *S 0.000e+00 0.000e+00 
i_A\[24\] I *L 0.000e+00 *S 0.000e+00 0.000e+00 
i_A\[23\] I *L 0.000e+00 *S 0.000e+00 0.000e+00 
i_A\[22\] I *L 0.000e+00 *S 0.000e+00 0.000e+00 
i_A\[21\] I *L 0.000e+00 *S 0.000e+00 0.000e+00 
i_A\[20\] I *L 0.000e+00 *S 0.000e+00 0.000e+00 
i_A\[19\] I *L 0.000e+00 *S 0.000e+00 0.000e+00 
i_A\[18\] I *L 0.000e+00 *S 0.000e+00 0.000e+00 
i_A\[17\] I *L 0.000e+00 *S 0.000e+00 0.000e+00 
i_A\[16\] I *L 0.000e+00 *S 0.000e+00 0.000e+00 
i_A\[15\] I *L 0.000e+00 *S 0.000e+00 0.000e+00 
i_A\[14\] I *L 0.000e+00 *S 0.000e+00 0.000e+00 
i_A\[13\] I *L 0.000e+00 *S 0.000e+00 0.000e+00 
i_A\[12\] I *L 0.000e+00 *S 0.000e+00 0.000e+00 
i_A\[11\] I *L 0.000e+00 *S 0.000e+00 0.000e+00 
i_A\[10\] I *L 0.000e+00 *S 0.000e+00 0.000e+00 
i_A\[9\] I *L 0.000e+00 *S 0.000e+00 0.000e+00 
i_A\[8\] I *L 0.000e+00 *S 0.000e+00 0.000e+00 
i_A\[7\] I *L 0.000e+00 *S 0.000e+00 0.000e+00 
i_A\[6\] I *L 0.000e+00 *S 0.000e+00 0.000e+00 
i_A\[5\] I *L 0.000e+00 *S 0.000e+00 0.000e+00 
i_A\[4\] I *L 0.000e+00 *S 0.000e+00 0.000e+00 
i_A\[3\] I *L 0.000e+00 *S 0.000e+00 0.000e+00 
i_A\[2\] I *L 0.000e+00 *S 0.000e+00 0.000e+00 
i_A\[1\] I *L 0.000e+00 *S 0.000e+00 0.000e+00 
i_A\[0\] I *L 0.000e+00 *S 0.000e+00 0.000e+00 
i_B\[31\] I *L 0.000e+00 *S 0.000e+00 0.000e+00 
i_B\[30\] I *L 0.000e+00 *S 0.000e+00 0.000e+00 
i_B\[29\] I *L 0.000e+00 *S 0.000e+00 0.000e+00 
i_B\[28\] I *L 0.000e+00 *S 0.000e+00 0.000e+00 
i_B\[27\] I *L 0.000e+00 *S 0.000e+00 0.000e+00 
i_B\[26\] I *L 0.000e+00 *S 0.000e+00 0.000e+00 
i_B\[25\] I *L 0.000e+00 *S 0.000e+00 0.000e+00 
i_B\[24\] I *L 0.000e+00 *S 0.000e+00 0.000e+00 
i_B\[23\] I *L 0.000e+00 *S 0.000e+00 0.000e+00 
i_B\[22\] I *L 0.000e+00 *S 0.000e+00 0.000e+00 
i_B\[21\] I *L 0.000e+00 *S 0.000e+00 0.000e+00 
i_B\[20\] I *L 0.000e+00 *S 0.000e+00 0.000e+00 
i_B\[19\] I *L 0.000e+00 *S 0.000e+00 0.000e+00 
i_B\[18\] I *L 0.000e+00 *S 0.000e+00 0.000e+00 
i_B\[17\] I *L 0.000e+00 *S 0.000e+00 0.000e+00 
i_B\[16\] I *L 0.000e+00 *S 0.000e+00 0.000e+00 
i_B\[15\] I *L 0.000e+00 *S 0.000e+00 0.000e+00 
i_B\[14\] I *L 0.000e+00 *S 0.000e+00 0.000e+00 
i_B\[13\] I *L 0.000e+00 *S 0.000e+00 0.000e+00 
i_B\[12\] I *L 0.000e+00 *S 0.000e+00 0.000e+00 
i_B\[11\] I *L 0.000e+00 *S 0.000e+00 0.000e+00 
i_B\[10\] I *L 0.000e+00 *S 0.000e+00 0.000e+00 
i_B\[9\] I *L 0.000e+00 *S 0.000e+00 0.000e+00 
i_B\[8\] I *L 0.000e+00 *S 0.000e+00 0.000e+00 
i_B\[7\] I *L 0.000e+00 *S 0.000e+00 0.000e+00 
i_B\[6\] I *L 0.000e+00 *S 0.000e+00 0.000e+00 
i_B\[5\] I *L 0.000e+00 *S 0.000e+00 0.000e+00 
i_B\[4\] I *L 0.000e+00 *S 0.000e+00 0.000e+00 
i_B\[3\] I *L 0.000e+00 *S 0.000e+00 0.000e+00 
i_B\[2\] I *L 0.000e+00 *S 0.000e+00 0.000e+00 
i_B\[1\] I *L 0.000e+00 *S 0.000e+00 0.000e+00 
i_B\[0\] I *L 0.000e+00 *S 0.000e+00 0.000e+00 
i_AB_STB I *L 0.000e+00 *S 0.000e+00 0.000e+00 
o_AB_ACK O *L 1.035e-02 *S 2.096e-01 1.658e-01 
o_Z\[31\] O *L 1.035e-02 *S 1.251e-01 1.003e-01 
o_Z\[30\] O *L 1.035e-02 *S 1.251e-01 1.003e-01 
o_Z\[29\] O *L 1.035e-02 *S 1.251e-01 1.003e-01 
o_Z\[28\] O *L 1.035e-02 *S 1.251e-01 1.003e-01 
o_Z\[27\] O *L 1.035e-02 *S 1.251e-01 1.003e-01 
o_Z\[26\] O *L 1.035e-02 *S 1.251e-01 1.003e-01 
o_Z\[25\] O *L 1.035e-02 *S 1.251e-01 1.003e-01 
o_Z\[24\] O *L 1.035e-02 *S 1.251e-01 1.003e-01 
o_Z\[23\] O *L 1.035e-02 *S 1.251e-01 1.003e-01 
o_Z\[22\] O *L 1.035e-02 *S 1.251e-01 1.003e-01 
o_Z\[21\] O *L 1.035e-02 *S 1.251e-01 1.003e-01 
o_Z\[20\] O *L 1.035e-02 *S 1.251e-01 1.003e-01 
o_Z\[19\] O *L 1.035e-02 *S 1.251e-01 1.003e-01 
o_Z\[18\] O *L 1.035e-02 *S 1.251e-01 1.003e-01 
o_Z\[17\] O *L 1.035e-02 *S 1.251e-01 1.003e-01 
o_Z\[16\] O *L 1.035e-02 *S 1.251e-01 1.003e-01 
o_Z\[15\] O *L 1.035e-02 *S 1.251e-01 1.003e-01 
o_Z\[14\] O *L 1.035e-02 *S 1.251e-01 1.003e-01 
o_Z\[13\] O *L 1.035e-02 *S 1.251e-01 1.003e-01 
o_Z\[12\] O *L 1.035e-02 *S 1.251e-01 1.003e-01 
o_Z\[11\] O *L 1.035e-02 *S 1.251e-01 1.003e-01 
o_Z\[10\] O *L 1.035e-02 *S 1.251e-01 1.003e-01 
o_Z\[9\] O *L 1.035e-02 *S 1.251e-01 1.003e-01 
o_Z\[8\] O *L 1.035e-02 *S 1.251e-01 1.003e-01 
o_Z\[7\] O *L 1.035e-02 *S 1.251e-01 1.003e-01 
o_Z\[6\] O *L 1.035e-02 *S 1.251e-01 1.003e-01 
o_Z\[5\] O *L 1.035e-02 *S 1.251e-01 1.003e-01 
o_Z\[4\] O *L 1.035e-02 *S 1.251e-01 1.003e-01 
o_Z\[3\] O *L 1.035e-02 *S 1.251e-01 1.003e-01 
o_Z\[2\] O *L 1.035e-02 *S 1.251e-01 1.003e-01 
o_Z\[1\] O *L 1.035e-02 *S 1.251e-01 1.003e-01 
o_Z\[0\] O *L 1.035e-02 *S 1.251e-01 1.003e-01 
o_Z_STB O *L 1.035e-02 *S 2.139e-01 1.685e-01 
i_Z_ACK I *L 0.000e+00 *S 0.000e+00 0.000e+00 
i_CLK I *L 0.000e+00 *S 0.000e+00 0.000e+00 
i_RST I *L 0.000e+00 *S 0.000e+00 0.000e+00 

*R_NET i_A\[31\] 4.640e-03
*DRIVER i_A\[31\]
*CELL NULL
*C2_R1_C1 2.320e-03 7.710e-03 2.320e-03 
*LOADS
*RC a_reg_31_:D 3.577e-05
*END

*R_NET i_A\[30\] 4.640e-03
*DRIVER i_A\[30\]
*CELL NULL
*C2_R1_C1 2.320e-03 7.710e-03 2.320e-03 
*LOADS
*RC a_reg_30_:D 3.577e-05
*END

*R_NET i_A\[29\] 4.640e-03
*DRIVER i_A\[29\]
*CELL NULL
*C2_R1_C1 2.320e-03 7.710e-03 2.320e-03 
*LOADS
*RC a_reg_29_:D 3.577e-05
*END

*R_NET i_A\[28\] 4.640e-03
*DRIVER i_A\[28\]
*CELL NULL
*C2_R1_C1 2.320e-03 7.710e-03 2.320e-03 
*LOADS
*RC a_reg_28_:D 3.577e-05
*END

*R_NET i_A\[27\] 4.640e-03
*DRIVER i_A\[27\]
*CELL NULL
*C2_R1_C1 2.320e-03 7.710e-03 2.320e-03 
*LOADS
*RC a_reg_27_:D 3.577e-05
*END

*R_NET i_A\[26\] 4.640e-03
*DRIVER i_A\[26\]
*CELL NULL
*C2_R1_C1 2.320e-03 7.710e-03 2.320e-03 
*LOADS
*RC a_reg_26_:D 3.577e-05
*END

*R_NET i_A\[25\] 4.640e-03
*DRIVER i_A\[25\]
*CELL NULL
*C2_R1_C1 2.320e-03 7.710e-03 2.320e-03 
*LOADS
*RC a_reg_25_:D 3.577e-05
*END

*R_NET i_A\[24\] 4.640e-03
*DRIVER i_A\[24\]
*CELL NULL
*C2_R1_C1 2.320e-03 7.710e-03 2.320e-03 
*LOADS
*RC a_reg_24_:D 3.577e-05
*END

*R_NET i_A\[23\] 4.640e-03
*DRIVER i_A\[23\]
*CELL NULL
*C2_R1_C1 2.320e-03 7.710e-03 2.320e-03 
*LOADS
*RC a_reg_23_:D 3.577e-05
*END

*R_NET i_A\[22\] 4.640e-03
*DRIVER i_A\[22\]
*CELL NULL
*C2_R1_C1 2.320e-03 7.710e-03 2.320e-03 
*LOADS
*RC a_reg_22_:D 3.577e-05
*END

*R_NET i_A\[21\] 4.640e-03
*DRIVER i_A\[21\]
*CELL NULL
*C2_R1_C1 2.320e-03 7.710e-03 2.320e-03 
*LOADS
*RC a_reg_21_:D 3.577e-05
*END

*R_NET i_A\[20\] 4.640e-03
*DRIVER i_A\[20\]
*CELL NULL
*C2_R1_C1 2.320e-03 7.710e-03 2.320e-03 
*LOADS
*RC a_reg_20_:D 3.577e-05
*END

*R_NET i_A\[19\] 4.640e-03
*DRIVER i_A\[19\]
*CELL NULL
*C2_R1_C1 2.320e-03 7.710e-03 2.320e-03 
*LOADS
*RC a_reg_19_:D 3.577e-05
*END

*R_NET i_A\[18\] 4.640e-03
*DRIVER i_A\[18\]
*CELL NULL
*C2_R1_C1 2.320e-03 7.710e-03 2.320e-03 
*LOADS
*RC a_reg_18_:D 3.577e-05
*END

*R_NET i_A\[17\] 4.640e-03
*DRIVER i_A\[17\]
*CELL NULL
*C2_R1_C1 2.320e-03 7.710e-03 2.320e-03 
*LOADS
*RC a_reg_17_:D 3.577e-05
*END

*R_NET i_A\[16\] 4.640e-03
*DRIVER i_A\[16\]
*CELL NULL
*C2_R1_C1 2.320e-03 7.710e-03 2.320e-03 
*LOADS
*RC a_reg_16_:D 3.577e-05
*END

*R_NET i_A\[15\] 4.640e-03
*DRIVER i_A\[15\]
*CELL NULL
*C2_R1_C1 2.320e-03 7.710e-03 2.320e-03 
*LOADS
*RC a_reg_15_:D 3.577e-05
*END

*R_NET i_A\[14\] 4.640e-03
*DRIVER i_A\[14\]
*CELL NULL
*C2_R1_C1 2.320e-03 7.710e-03 2.320e-03 
*LOADS
*RC a_reg_14_:D 3.577e-05
*END

*R_NET i_A\[13\] 4.640e-03
*DRIVER i_A\[13\]
*CELL NULL
*C2_R1_C1 2.320e-03 7.710e-03 2.320e-03 
*LOADS
*RC a_reg_13_:D 3.577e-05
*END

*R_NET i_A\[12\] 4.640e-03
*DRIVER i_A\[12\]
*CELL NULL
*C2_R1_C1 2.320e-03 7.710e-03 2.320e-03 
*LOADS
*RC a_reg_12_:D 3.577e-05
*END

*R_NET i_A\[11\] 4.640e-03
*DRIVER i_A\[11\]
*CELL NULL
*C2_R1_C1 2.320e-03 7.710e-03 2.320e-03 
*LOADS
*RC a_reg_11_:D 3.577e-05
*END

*R_NET i_A\[10\] 4.640e-03
*DRIVER i_A\[10\]
*CELL NULL
*C2_R1_C1 2.320e-03 7.710e-03 2.320e-03 
*LOADS
*RC a_reg_10_:D 3.577e-05
*END

*R_NET i_A\[9\] 4.640e-03
*DRIVER i_A\[9\]
*CELL NULL
*C2_R1_C1 2.320e-03 7.710e-03 2.320e-03 
*LOADS
*RC a_reg_9_:D 3.577e-05
*END

*R_NET i_A\[8\] 4.640e-03
*DRIVER i_A\[8\]
*CELL NULL
*C2_R1_C1 2.320e-03 7.710e-03 2.320e-03 
*LOADS
*RC a_reg_8_:D 3.577e-05
*END

*R_NET i_A\[7\] 4.640e-03
*DRIVER i_A\[7\]
*CELL NULL
*C2_R1_C1 2.320e-03 7.710e-03 2.320e-03 
*LOADS
*RC a_reg_7_:D 3.577e-05
*END

*R_NET i_A\[6\] 4.640e-03
*DRIVER i_A\[6\]
*CELL NULL
*C2_R1_C1 2.320e-03 7.710e-03 2.320e-03 
*LOADS
*RC a_reg_6_:D 3.577e-05
*END

*R_NET i_A\[5\] 4.640e-03
*DRIVER i_A\[5\]
*CELL NULL
*C2_R1_C1 2.320e-03 7.710e-03 2.320e-03 
*LOADS
*RC a_reg_5_:D 3.577e-05
*END

*R_NET i_A\[4\] 4.640e-03
*DRIVER i_A\[4\]
*CELL NULL
*C2_R1_C1 2.320e-03 7.710e-03 2.320e-03 
*LOADS
*RC a_reg_4_:D 3.577e-05
*END

*R_NET i_A\[3\] 4.640e-03
*DRIVER i_A\[3\]
*CELL NULL
*C2_R1_C1 2.320e-03 7.710e-03 2.320e-03 
*LOADS
*RC a_reg_3_:D 3.577e-05
*END

*R_NET i_A\[2\] 4.640e-03
*DRIVER i_A\[2\]
*CELL NULL
*C2_R1_C1 2.320e-03 7.710e-03 2.320e-03 
*LOADS
*RC a_reg_2_:D 3.577e-05
*END

*R_NET i_A\[1\] 4.640e-03
*DRIVER i_A\[1\]
*CELL NULL
*C2_R1_C1 2.320e-03 7.710e-03 2.320e-03 
*LOADS
*RC a_reg_1_:D 3.577e-05
*END

*R_NET i_A\[0\] 4.640e-03
*DRIVER i_A\[0\]
*CELL NULL
*C2_R1_C1 2.320e-03 7.710e-03 2.320e-03 
*LOADS
*RC a_reg_0_:D 3.577e-05
*END

*R_NET i_B\[31\] 4.640e-03
*DRIVER i_B\[31\]
*CELL NULL
*C2_R1_C1 2.320e-03 7.710e-03 2.320e-03 
*LOADS
*RC b_reg_31_:D 3.577e-05
*END

*R_NET i_B\[30\] 4.640e-03
*DRIVER i_B\[30\]
*CELL NULL
*C2_R1_C1 2.320e-03 7.710e-03 2.320e-03 
*LOADS
*RC b_reg_30_:D 3.577e-05
*END

*R_NET i_B\[29\] 4.640e-03
*DRIVER i_B\[29\]
*CELL NULL
*C2_R1_C1 2.320e-03 7.710e-03 2.320e-03 
*LOADS
*RC b_reg_29_:D 3.577e-05
*END

*R_NET i_B\[28\] 4.640e-03
*DRIVER i_B\[28\]
*CELL NULL
*C2_R1_C1 2.320e-03 7.710e-03 2.320e-03 
*LOADS
*RC b_reg_28_:D 3.577e-05
*END

*R_NET i_B\[27\] 4.640e-03
*DRIVER i_B\[27\]
*CELL NULL
*C2_R1_C1 2.320e-03 7.710e-03 2.320e-03 
*LOADS
*RC b_reg_27_:D 3.577e-05
*END

*R_NET i_B\[26\] 4.640e-03
*DRIVER i_B\[26\]
*CELL NULL
*C2_R1_C1 2.320e-03 7.710e-03 2.320e-03 
*LOADS
*RC b_reg_26_:D 3.577e-05
*END

*R_NET i_B\[25\] 4.640e-03
*DRIVER i_B\[25\]
*CELL NULL
*C2_R1_C1 2.320e-03 7.710e-03 2.320e-03 
*LOADS
*RC b_reg_25_:D 3.577e-05
*END

*R_NET i_B\[24\] 4.640e-03
*DRIVER i_B\[24\]
*CELL NULL
*C2_R1_C1 2.320e-03 7.710e-03 2.320e-03 
*LOADS
*RC b_reg_24_:D 3.577e-05
*END

*R_NET i_B\[23\] 4.640e-03
*DRIVER i_B\[23\]
*CELL NULL
*C2_R1_C1 2.320e-03 7.710e-03 2.320e-03 
*LOADS
*RC b_reg_23_:D 3.577e-05
*END

*R_NET i_B\[22\] 4.640e-03
*DRIVER i_B\[22\]
*CELL NULL
*C2_R1_C1 2.320e-03 7.710e-03 2.320e-03 
*LOADS
*RC b_reg_22_:D 3.577e-05
*END

*R_NET i_B\[21\] 4.640e-03
*DRIVER i_B\[21\]
*CELL NULL
*C2_R1_C1 2.320e-03 7.710e-03 2.320e-03 
*LOADS
*RC b_reg_21_:D 3.577e-05
*END

*R_NET i_B\[20\] 4.640e-03
*DRIVER i_B\[20\]
*CELL NULL
*C2_R1_C1 2.320e-03 7.710e-03 2.320e-03 
*LOADS
*RC b_reg_20_:D 3.577e-05
*END

*R_NET i_B\[19\] 4.640e-03
*DRIVER i_B\[19\]
*CELL NULL
*C2_R1_C1 2.320e-03 7.710e-03 2.320e-03 
*LOADS
*RC b_reg_19_:D 3.577e-05
*END

*R_NET i_B\[18\] 4.640e-03
*DRIVER i_B\[18\]
*CELL NULL
*C2_R1_C1 2.320e-03 7.710e-03 2.320e-03 
*LOADS
*RC b_reg_18_:D 3.577e-05
*END

*R_NET i_B\[17\] 4.640e-03
*DRIVER i_B\[17\]
*CELL NULL
*C2_R1_C1 2.320e-03 7.710e-03 2.320e-03 
*LOADS
*RC b_reg_17_:D 3.577e-05
*END

*R_NET i_B\[16\] 4.640e-03
*DRIVER i_B\[16\]
*CELL NULL
*C2_R1_C1 2.320e-03 7.710e-03 2.320e-03 
*LOADS
*RC b_reg_16_:D 3.577e-05
*END

*R_NET i_B\[15\] 4.640e-03
*DRIVER i_B\[15\]
*CELL NULL
*C2_R1_C1 2.320e-03 7.710e-03 2.320e-03 
*LOADS
*RC b_reg_15_:D 3.577e-05
*END

*R_NET i_B\[14\] 4.640e-03
*DRIVER i_B\[14\]
*CELL NULL
*C2_R1_C1 2.320e-03 7.710e-03 2.320e-03 
*LOADS
*RC b_reg_14_:D 3.577e-05
*END

*R_NET i_B\[13\] 4.640e-03
*DRIVER i_B\[13\]
*CELL NULL
*C2_R1_C1 2.320e-03 7.710e-03 2.320e-03 
*LOADS
*RC b_reg_13_:D 3.577e-05
*END

*R_NET i_B\[12\] 4.640e-03
*DRIVER i_B\[12\]
*CELL NULL
*C2_R1_C1 2.320e-03 7.710e-03 2.320e-03 
*LOADS
*RC b_reg_12_:D 3.577e-05
*END

*R_NET i_B\[11\] 4.640e-03
*DRIVER i_B\[11\]
*CELL NULL
*C2_R1_C1 2.320e-03 7.710e-03 2.320e-03 
*LOADS
*RC b_reg_11_:D 3.577e-05
*END

*R_NET i_B\[10\] 4.640e-03
*DRIVER i_B\[10\]
*CELL NULL
*C2_R1_C1 2.320e-03 7.710e-03 2.320e-03 
*LOADS
*RC b_reg_10_:D 3.577e-05
*END

*R_NET i_B\[9\] 4.640e-03
*DRIVER i_B\[9\]
*CELL NULL
*C2_R1_C1 2.320e-03 7.710e-03 2.320e-03 
*LOADS
*RC b_reg_9_:D 3.577e-05
*END

*R_NET i_B\[8\] 4.640e-03
*DRIVER i_B\[8\]
*CELL NULL
*C2_R1_C1 2.320e-03 7.710e-03 2.320e-03 
*LOADS
*RC b_reg_8_:D 3.577e-05
*END

*R_NET i_B\[7\] 4.640e-03
*DRIVER i_B\[7\]
*CELL NULL
*C2_R1_C1 2.320e-03 7.710e-03 2.320e-03 
*LOADS
*RC b_reg_7_:D 3.577e-05
*END

*R_NET i_B\[6\] 4.640e-03
*DRIVER i_B\[6\]
*CELL NULL
*C2_R1_C1 2.320e-03 7.710e-03 2.320e-03 
*LOADS
*RC b_reg_6_:D 3.577e-05
*END

*R_NET i_B\[5\] 4.640e-03
*DRIVER i_B\[5\]
*CELL NULL
*C2_R1_C1 2.320e-03 7.710e-03 2.320e-03 
*LOADS
*RC b_reg_5_:D 3.577e-05
*END

*R_NET i_B\[4\] 4.640e-03
*DRIVER i_B\[4\]
*CELL NULL
*C2_R1_C1 2.320e-03 7.710e-03 2.320e-03 
*LOADS
*RC b_reg_4_:D 3.577e-05
*END

*R_NET i_B\[3\] 4.640e-03
*DRIVER i_B\[3\]
*CELL NULL
*C2_R1_C1 2.320e-03 7.710e-03 2.320e-03 
*LOADS
*RC b_reg_3_:D 3.577e-05
*END

*R_NET i_B\[2\] 4.640e-03
*DRIVER i_B\[2\]
*CELL NULL
*C2_R1_C1 2.320e-03 7.710e-03 2.320e-03 
*LOADS
*RC b_reg_2_:D 3.577e-05
*END

*R_NET i_B\[1\] 4.640e-03
*DRIVER i_B\[1\]
*CELL NULL
*C2_R1_C1 2.320e-03 7.710e-03 2.320e-03 
*LOADS
*RC b_reg_1_:D 3.577e-05
*END

*R_NET i_B\[0\] 4.640e-03
*DRIVER i_B\[0\]
*CELL NULL
*C2_R1_C1 2.320e-03 7.710e-03 2.320e-03 
*LOADS
*RC b_reg_0_:D 3.577e-05
*END

*R_NET i_AB_STB 4.860e-03
*DRIVER i_AB_STB
*CELL NULL
*C2_R1_C1 2.430e-03 7.710e-03 2.430e-03 
*LOADS
*RC U665:B 3.747e-05
*END

*R_NET o_AB_ACK 2.395e-02
*DRIVER o_AB_ACK_reg:Q
*CELL fd1qd1_hd
*C2_R1_C1 1.197e-02 1.106e-02 1.197e-02 
*LOADS
*RC U665:A 2.649e-04
*RC U1916:A 2.649e-04
*RC o_AB_ACK 2.649e-04
*END

*R_NET o_Z\[31\] 1.364e-02
*DRIVER o_Z_reg_31_:Q
*CELL fd1eqd1_hd
*C2_R1_C1 6.820e-03 7.710e-03 6.820e-03 
*LOADS
*RC o_Z\[31\] 1.052e-04
*END

*R_NET o_Z\[30\] 1.364e-02
*DRIVER o_Z_reg_30_:Q
*CELL fd1eqd1_hd
*C2_R1_C1 6.820e-03 7.710e-03 6.820e-03 
*LOADS
*RC o_Z\[30\] 1.052e-04
*END

*R_NET o_Z\[29\] 1.364e-02
*DRIVER o_Z_reg_29_:Q
*CELL fd1eqd1_hd
*C2_R1_C1 6.820e-03 7.710e-03 6.820e-03 
*LOADS
*RC o_Z\[29\] 1.052e-04
*END

*R_NET o_Z\[28\] 1.364e-02
*DRIVER o_Z_reg_28_:Q
*CELL fd1eqd1_hd
*C2_R1_C1 6.820e-03 7.710e-03 6.820e-03 
*LOADS
*RC o_Z\[28\] 1.052e-04
*END

*R_NET o_Z\[27\] 1.364e-02
*DRIVER o_Z_reg_27_:Q
*CELL fd1eqd1_hd
*C2_R1_C1 6.820e-03 7.710e-03 6.820e-03 
*LOADS
*RC o_Z\[27\] 1.052e-04
*END

*R_NET o_Z\[26\] 1.364e-02
*DRIVER o_Z_reg_26_:Q
*CELL fd1eqd1_hd
*C2_R1_C1 6.820e-03 7.710e-03 6.820e-03 
*LOADS
*RC o_Z\[26\] 1.052e-04
*END

*R_NET o_Z\[25\] 1.364e-02
*DRIVER o_Z_reg_25_:Q
*CELL fd1eqd1_hd
*C2_R1_C1 6.820e-03 7.710e-03 6.820e-03 
*LOADS
*RC o_Z\[25\] 1.052e-04
*END

*R_NET o_Z\[24\] 1.364e-02
*DRIVER o_Z_reg_24_:Q
*CELL fd1eqd1_hd
*C2_R1_C1 6.820e-03 7.710e-03 6.820e-03 
*LOADS
*RC o_Z\[24\] 1.052e-04
*END

*R_NET o_Z\[23\] 1.364e-02
*DRIVER o_Z_reg_23_:Q
*CELL fd1eqd1_hd
*C2_R1_C1 6.820e-03 7.710e-03 6.820e-03 
*LOADS
*RC o_Z\[23\] 1.052e-04
*END

*R_NET o_Z\[22\] 1.364e-02
*DRIVER o_Z_reg_22_:Q
*CELL fd1eqd1_hd
*C2_R1_C1 6.820e-03 7.710e-03 6.820e-03 
*LOADS
*RC o_Z\[22\] 1.052e-04
*END

*R_NET o_Z\[21\] 1.364e-02
*DRIVER o_Z_reg_21_:Q
*CELL fd1eqd1_hd
*C2_R1_C1 6.820e-03 7.710e-03 6.820e-03 
*LOADS
*RC o_Z\[21\] 1.052e-04
*END

*R_NET o_Z\[20\] 1.364e-02
*DRIVER o_Z_reg_20_:Q
*CELL fd1eqd1_hd
*C2_R1_C1 6.820e-03 7.710e-03 6.820e-03 
*LOADS
*RC o_Z\[20\] 1.052e-04
*END

*R_NET o_Z\[19\] 1.364e-02
*DRIVER o_Z_reg_19_:Q
*CELL fd1eqd1_hd
*C2_R1_C1 6.820e-03 7.710e-03 6.820e-03 
*LOADS
*RC o_Z\[19\] 1.052e-04
*END

*R_NET o_Z\[18\] 1.364e-02
*DRIVER o_Z_reg_18_:Q
*CELL fd1eqd1_hd
*C2_R1_C1 6.820e-03 7.710e-03 6.820e-03 
*LOADS
*RC o_Z\[18\] 1.052e-04
*END

*R_NET o_Z\[17\] 1.364e-02
*DRIVER o_Z_reg_17_:Q
*CELL fd1eqd1_hd
*C2_R1_C1 6.820e-03 7.710e-03 6.820e-03 
*LOADS
*RC o_Z\[17\] 1.052e-04
*END

*R_NET o_Z\[16\] 1.364e-02
*DRIVER o_Z_reg_16_:Q
*CELL fd1eqd1_hd
*C2_R1_C1 6.820e-03 7.710e-03 6.820e-03 
*LOADS
*RC o_Z\[16\] 1.052e-04
*END

*R_NET o_Z\[15\] 1.364e-02
*DRIVER o_Z_reg_15_:Q
*CELL fd1eqd1_hd
*C2_R1_C1 6.820e-03 7.710e-03 6.820e-03 
*LOADS
*RC o_Z\[15\] 1.052e-04
*END

*R_NET o_Z\[14\] 1.364e-02
*DRIVER o_Z_reg_14_:Q
*CELL fd1eqd1_hd
*C2_R1_C1 6.820e-03 7.710e-03 6.820e-03 
*LOADS
*RC o_Z\[14\] 1.052e-04
*END

*R_NET o_Z\[13\] 1.364e-02
*DRIVER o_Z_reg_13_:Q
*CELL fd1eqd1_hd
*C2_R1_C1 6.820e-03 7.710e-03 6.820e-03 
*LOADS
*RC o_Z\[13\] 1.052e-04
*END

*R_NET o_Z\[12\] 1.364e-02
*DRIVER o_Z_reg_12_:Q
*CELL fd1eqd1_hd
*C2_R1_C1 6.820e-03 7.710e-03 6.820e-03 
*LOADS
*RC o_Z\[12\] 1.052e-04
*END

*R_NET o_Z\[11\] 1.364e-02
*DRIVER o_Z_reg_11_:Q
*CELL fd1eqd1_hd
*C2_R1_C1 6.820e-03 7.710e-03 6.820e-03 
*LOADS
*RC o_Z\[11\] 1.052e-04
*END

*R_NET o_Z\[10\] 1.364e-02
*DRIVER o_Z_reg_10_:Q
*CELL fd1eqd1_hd
*C2_R1_C1 6.820e-03 7.710e-03 6.820e-03 
*LOADS
*RC o_Z\[10\] 1.052e-04
*END

*R_NET o_Z\[9\] 1.364e-02
*DRIVER o_Z_reg_9_:Q
*CELL fd1eqd1_hd
*C2_R1_C1 6.820e-03 7.710e-03 6.820e-03 
*LOADS
*RC o_Z\[9\] 1.052e-04
*END

*R_NET o_Z\[8\] 1.364e-02
*DRIVER o_Z_reg_8_:Q
*CELL fd1eqd1_hd
*C2_R1_C1 6.820e-03 7.710e-03 6.820e-03 
*LOADS
*RC o_Z\[8\] 1.052e-04
*END

*R_NET o_Z\[7\] 1.364e-02
*DRIVER o_Z_reg_7_:Q
*CELL fd1eqd1_hd
*C2_R1_C1 6.820e-03 7.710e-03 6.820e-03 
*LOADS
*RC o_Z\[7\] 1.052e-04
*END

*R_NET o_Z\[6\] 1.364e-02
*DRIVER o_Z_reg_6_:Q
*CELL fd1eqd1_hd
*C2_R1_C1 6.820e-03 7.710e-03 6.820e-03 
*LOADS
*RC o_Z\[6\] 1.052e-04
*END

*R_NET o_Z\[5\] 1.364e-02
*DRIVER o_Z_reg_5_:Q
*CELL fd1eqd1_hd
*C2_R1_C1 6.820e-03 7.710e-03 6.820e-03 
*LOADS
*RC o_Z\[5\] 1.052e-04
*END

*R_NET o_Z\[4\] 1.364e-02
*DRIVER o_Z_reg_4_:Q
*CELL fd1eqd1_hd
*C2_R1_C1 6.820e-03 7.710e-03 6.820e-03 
*LOADS
*RC o_Z\[4\] 1.052e-04
*END

*R_NET o_Z\[3\] 1.364e-02
*DRIVER o_Z_reg_3_:Q
*CELL fd1eqd1_hd
*C2_R1_C1 6.820e-03 7.710e-03 6.820e-03 
*LOADS
*RC o_Z\[3\] 1.052e-04
*END

*R_NET o_Z\[2\] 1.364e-02
*DRIVER o_Z_reg_2_:Q
*CELL fd1eqd1_hd
*C2_R1_C1 6.820e-03 7.710e-03 6.820e-03 
*LOADS
*RC o_Z\[2\] 1.052e-04
*END

*R_NET o_Z\[1\] 1.364e-02
*DRIVER o_Z_reg_1_:Q
*CELL fd1eqd1_hd
*C2_R1_C1 6.820e-03 7.710e-03 6.820e-03 
*LOADS
*RC o_Z\[1\] 1.052e-04
*END

*R_NET o_Z\[0\] 1.364e-02
*DRIVER o_Z_reg_0_:Q
*CELL fd1eqd1_hd
*C2_R1_C1 6.820e-03 7.710e-03 6.820e-03 
*LOADS
*RC o_Z\[0\] 1.052e-04
*END

*R_NET o_Z_STB 2.449e-02
*DRIVER o_Z_STB_reg:Q
*CELL fd1qd1_hd
*C2_R1_C1 1.225e-02 1.106e-02 1.225e-02 
*LOADS
*RC U1023:B 2.709e-04
*RC U1717:B 2.709e-04
*RC o_Z_STB 2.709e-04
*END

*R_NET i_Z_ACK 4.730e-03
*DRIVER i_Z_ACK
*CELL NULL
*C2_R1_C1 2.365e-03 7.710e-03 2.365e-03 
*LOADS
*RC U1023:A 3.647e-05
*END

*R_NET state\[3\] 1.617e-02
*DRIVER state_reg_3_:Q
*CELL fd1qd1_hd
*C2_R1_C1 8.085e-03 1.106e-02 8.085e-03 
*LOADS
*RC U1256:AN 1.788e-04
*RC U1374:A 1.788e-04
*RC U1383:A 1.788e-04
*END

*R_NET state\[2\] 3.637e-02
*DRIVER state_reg_2_:Q
*CELL fd1qd1_hd
*C2_R1_C1 1.819e-02 1.922e-02 1.819e-02 
*LOADS
*RC U477:A 6.990e-04
*RC U1009:A 6.990e-04
*RC U1328:AN 6.990e-04
*RC U1370:A 6.990e-04
*RC U1382:A 6.990e-04
*RC U1397:A 6.990e-04
*END

*R_NET state\[1\] 3.667e-02
*DRIVER state_reg_1_:Q
*CELL fd1qd1_hd
*C2_R1_C1 1.833e-02 1.922e-02 1.833e-02 
*LOADS
*RC U479:A 7.048e-04
*RC U483:A 7.048e-04
*RC U589:A 7.048e-04
*RC U1719:A 7.048e-04
*RC U1244:B 7.048e-04
*RC U1099:A 7.048e-04
*END

*R_NET state\[0\] 2.885e-02
*DRIVER state_reg_0_:Q
*CELL fd1qd1_hd
*C2_R1_C1 1.443e-02 1.718e-02 1.443e-02 
*LOADS
*RC U476:A 4.956e-04
*RC U1256:B 4.956e-04
*RC U1373:A 4.956e-04
*RC U1383:B 4.956e-04
*RC U1397:B 4.956e-04
*END

*R_NET a\[31\] 4.640e-03
*DRIVER a_reg_31_:Q
*CELL fd1eqd1_hd
*C2_R1_C1 2.320e-03 7.710e-03 2.320e-03 
*LOADS
*RC a_s_reg:D 3.577e-05
*END

*R_NET a\[30\] 5.940e-03
*DRIVER a_reg_30_:Q
*CELL fd1eqd1_hd
*C2_R1_C1 2.970e-03 7.710e-03 2.970e-03 
*LOADS
*RC U1426:B 4.580e-05
*END

*R_NET a\[29\] 4.920e-03
*DRIVER a_reg_29_:Q
*CELL fd1eqd1_hd
*C2_R1_C1 2.460e-03 7.710e-03 2.460e-03 
*LOADS
*RC U950:B 3.793e-05
*END

*R_NET a\[28\] 4.920e-03
*DRIVER a_reg_28_:Q
*CELL fd1eqd1_hd
*C2_R1_C1 2.460e-03 7.710e-03 2.460e-03 
*LOADS
*RC U946:B 3.793e-05
*END

*R_NET a\[27\] 4.920e-03
*DRIVER a_reg_27_:Q
*CELL fd1eqd1_hd
*C2_R1_C1 2.460e-03 7.710e-03 2.460e-03 
*LOADS
*RC U944:B 3.793e-05
*END

*R_NET a\[26\] 4.920e-03
*DRIVER a_reg_26_:Q
*CELL fd1eqd1_hd
*C2_R1_C1 2.460e-03 7.710e-03 2.460e-03 
*LOADS
*RC U941:B 3.793e-05
*END

*R_NET a\[25\] 4.920e-03
*DRIVER a_reg_25_:Q
*CELL fd1eqd1_hd
*C2_R1_C1 2.460e-03 7.710e-03 2.460e-03 
*LOADS
*RC U942:B 3.793e-05
*END

*R_NET a\[24\] 4.920e-03
*DRIVER a_reg_24_:Q
*CELL fd1eqd1_hd
*C2_R1_C1 2.460e-03 7.710e-03 2.460e-03 
*LOADS
*RC U949:B 3.793e-05
*END

*R_NET a\[23\] 5.360e-03
*DRIVER a_reg_23_:Q
*CELL fd1eqd1_hd
*C2_R1_C1 2.680e-03 7.710e-03 2.680e-03 
*LOADS
*RC U1409:A 4.133e-05
*END

*R_NET a\[22\] 5.940e-03
*DRIVER a_reg_22_:Q
*CELL fd1eqd1_hd
*C2_R1_C1 2.970e-03 7.710e-03 2.970e-03 
*LOADS
*RC U1726:B 4.580e-05
*END

*R_NET a\[21\] 5.940e-03
*DRIVER a_reg_21_:Q
*CELL fd1eqd1_hd
*C2_R1_C1 2.970e-03 7.710e-03 2.970e-03 
*LOADS
*RC U1770:B 4.580e-05
*END

*R_NET a\[20\] 5.940e-03
*DRIVER a_reg_20_:Q
*CELL fd1eqd1_hd
*C2_R1_C1 2.970e-03 7.710e-03 2.970e-03 
*LOADS
*RC U1768:B 4.580e-05
*END

*R_NET a\[19\] 5.940e-03
*DRIVER a_reg_19_:Q
*CELL fd1eqd1_hd
*C2_R1_C1 2.970e-03 7.710e-03 2.970e-03 
*LOADS
*RC U1766:B 4.580e-05
*END

*R_NET a\[18\] 5.940e-03
*DRIVER a_reg_18_:Q
*CELL fd1eqd1_hd
*C2_R1_C1 2.970e-03 7.710e-03 2.970e-03 
*LOADS
*RC U1764:B 4.580e-05
*END

*R_NET a\[17\] 5.940e-03
*DRIVER a_reg_17_:Q
*CELL fd1eqd1_hd
*C2_R1_C1 2.970e-03 7.710e-03 2.970e-03 
*LOADS
*RC U1762:B 4.580e-05
*END

*R_NET a\[16\] 5.940e-03
*DRIVER a_reg_16_:Q
*CELL fd1eqd1_hd
*C2_R1_C1 2.970e-03 7.710e-03 2.970e-03 
*LOADS
*RC U1760:B 4.580e-05
*END

*R_NET a\[15\] 5.940e-03
*DRIVER a_reg_15_:Q
*CELL fd1eqd1_hd
*C2_R1_C1 2.970e-03 7.710e-03 2.970e-03 
*LOADS
*RC U1758:B 4.580e-05
*END

*R_NET a\[14\] 5.940e-03
*DRIVER a_reg_14_:Q
*CELL fd1eqd1_hd
*C2_R1_C1 2.970e-03 7.710e-03 2.970e-03 
*LOADS
*RC U1756:B 4.580e-05
*END

*R_NET a\[13\] 5.940e-03
*DRIVER a_reg_13_:Q
*CELL fd1eqd1_hd
*C2_R1_C1 2.970e-03 7.710e-03 2.970e-03 
*LOADS
*RC U1754:B 4.580e-05
*END

*R_NET a\[12\] 5.940e-03
*DRIVER a_reg_12_:Q
*CELL fd1eqd1_hd
*C2_R1_C1 2.970e-03 7.710e-03 2.970e-03 
*LOADS
*RC U1752:B 4.580e-05
*END

*R_NET a\[11\] 5.940e-03
*DRIVER a_reg_11_:Q
*CELL fd1eqd1_hd
*C2_R1_C1 2.970e-03 7.710e-03 2.970e-03 
*LOADS
*RC U1750:B 4.580e-05
*END

*R_NET a\[10\] 5.940e-03
*DRIVER a_reg_10_:Q
*CELL fd1eqd1_hd
*C2_R1_C1 2.970e-03 7.710e-03 2.970e-03 
*LOADS
*RC U1748:B 4.580e-05
*END

*R_NET a\[9\] 5.940e-03
*DRIVER a_reg_9_:Q
*CELL fd1eqd1_hd
*C2_R1_C1 2.970e-03 7.710e-03 2.970e-03 
*LOADS
*RC U1746:B 4.580e-05
*END

*R_NET a\[8\] 5.940e-03
*DRIVER a_reg_8_:Q
*CELL fd1eqd1_hd
*C2_R1_C1 2.970e-03 7.710e-03 2.970e-03 
*LOADS
*RC U1744:B 4.580e-05
*END

*R_NET a\[7\] 5.940e-03
*DRIVER a_reg_7_:Q
*CELL fd1eqd1_hd
*C2_R1_C1 2.970e-03 7.710e-03 2.970e-03 
*LOADS
*RC U1742:B 4.580e-05
*END

*R_NET a\[6\] 5.940e-03
*DRIVER a_reg_6_:Q
*CELL fd1eqd1_hd
*C2_R1_C1 2.970e-03 7.710e-03 2.970e-03 
*LOADS
*RC U1740:B 4.580e-05
*END

*R_NET a\[5\] 5.940e-03
*DRIVER a_reg_5_:Q
*CELL fd1eqd1_hd
*C2_R1_C1 2.970e-03 7.710e-03 2.970e-03 
*LOADS
*RC U1738:B 4.580e-05
*END

*R_NET a\[4\] 5.940e-03
*DRIVER a_reg_4_:Q
*CELL fd1eqd1_hd
*C2_R1_C1 2.970e-03 7.710e-03 2.970e-03 
*LOADS
*RC U1736:B 4.580e-05
*END

*R_NET a\[3\] 5.940e-03
*DRIVER a_reg_3_:Q
*CELL fd1eqd1_hd
*C2_R1_C1 2.970e-03 7.710e-03 2.970e-03 
*LOADS
*RC U1734:B 4.580e-05
*END

*R_NET a\[2\] 5.940e-03
*DRIVER a_reg_2_:Q
*CELL fd1eqd1_hd
*C2_R1_C1 2.970e-03 7.710e-03 2.970e-03 
*LOADS
*RC U1732:B 4.580e-05
*END

*R_NET a\[1\] 5.940e-03
*DRIVER a_reg_1_:Q
*CELL fd1eqd1_hd
*C2_R1_C1 2.970e-03 7.710e-03 2.970e-03 
*LOADS
*RC U1730:B 4.580e-05
*END

*R_NET a\[0\] 4.920e-03
*DRIVER a_reg_0_:Q
*CELL fd1eqd1_hd
*C2_R1_C1 2.460e-03 7.710e-03 2.460e-03 
*LOADS
*RC U943:B 3.793e-05
*END

*R_NET b\[31\] 4.640e-03
*DRIVER b_reg_31_:Q
*CELL fd1eqd1_hd
*C2_R1_C1 2.320e-03 7.710e-03 2.320e-03 
*LOADS
*RC b_s_reg:D 3.577e-05
*END

*R_NET b\[30\] 5.940e-03
*DRIVER b_reg_30_:Q
*CELL fd1eqd1_hd
*C2_R1_C1 2.970e-03 7.710e-03 2.970e-03 
*LOADS
*RC U1423:B 4.580e-05
*END

*R_NET b\[29\] 4.920e-03
*DRIVER b_reg_29_:Q
*CELL fd1eqd1_hd
*C2_R1_C1 2.460e-03 7.710e-03 2.460e-03 
*LOADS
*RC U952:B 3.793e-05
*END

*R_NET b\[28\] 4.920e-03
*DRIVER b_reg_28_:Q
*CELL fd1eqd1_hd
*C2_R1_C1 2.460e-03 7.710e-03 2.460e-03 
*LOADS
*RC U951:B 3.793e-05
*END

*R_NET b\[27\] 4.920e-03
*DRIVER b_reg_27_:Q
*CELL fd1eqd1_hd
*C2_R1_C1 2.460e-03 7.710e-03 2.460e-03 
*LOADS
*RC U1251:B 3.793e-05
*END

*R_NET b\[26\] 4.920e-03
*DRIVER b_reg_26_:Q
*CELL fd1eqd1_hd
*C2_R1_C1 2.460e-03 7.710e-03 2.460e-03 
*LOADS
*RC U1250:B 3.793e-05
*END

*R_NET b\[25\] 4.920e-03
*DRIVER b_reg_25_:Q
*CELL fd1eqd1_hd
*C2_R1_C1 2.460e-03 7.710e-03 2.460e-03 
*LOADS
*RC U1249:B 3.793e-05
*END

*R_NET b\[24\] 4.920e-03
*DRIVER b_reg_24_:Q
*CELL fd1eqd1_hd
*C2_R1_C1 2.460e-03 7.710e-03 2.460e-03 
*LOADS
*RC U1248:B 3.793e-05
*END

*R_NET b\[23\] 5.360e-03
*DRIVER b_reg_23_:Q
*CELL fd1eqd1_hd
*C2_R1_C1 2.680e-03 7.710e-03 2.680e-03 
*LOADS
*RC U1404:A 4.133e-05
*END

*R_NET b\[22\] 5.940e-03
*DRIVER b_reg_22_:Q
*CELL fd1eqd1_hd
*C2_R1_C1 2.970e-03 7.710e-03 2.970e-03 
*LOADS
*RC U1814:B 4.580e-05
*END

*R_NET b\[21\] 5.940e-03
*DRIVER b_reg_21_:Q
*CELL fd1eqd1_hd
*C2_R1_C1 2.970e-03 7.710e-03 2.970e-03 
*LOADS
*RC U1774:B 4.580e-05
*END

*R_NET b\[20\] 5.940e-03
*DRIVER b_reg_20_:Q
*CELL fd1eqd1_hd
*C2_R1_C1 2.970e-03 7.710e-03 2.970e-03 
*LOADS
*RC U1812:B 4.580e-05
*END

*R_NET b\[19\] 5.940e-03
*DRIVER b_reg_19_:Q
*CELL fd1eqd1_hd
*C2_R1_C1 2.970e-03 7.710e-03 2.970e-03 
*LOADS
*RC U1811:B 4.580e-05
*END

*R_NET b\[18\] 5.940e-03
*DRIVER b_reg_18_:Q
*CELL fd1eqd1_hd
*C2_R1_C1 2.970e-03 7.710e-03 2.970e-03 
*LOADS
*RC U1809:B 4.580e-05
*END

*R_NET b\[17\] 5.940e-03
*DRIVER b_reg_17_:Q
*CELL fd1eqd1_hd
*C2_R1_C1 2.970e-03 7.710e-03 2.970e-03 
*LOADS
*RC U1807:B 4.580e-05
*END

*R_NET b\[16\] 5.940e-03
*DRIVER b_reg_16_:Q
*CELL fd1eqd1_hd
*C2_R1_C1 2.970e-03 7.710e-03 2.970e-03 
*LOADS
*RC U1805:B 4.580e-05
*END

*R_NET b\[15\] 5.940e-03
*DRIVER b_reg_15_:Q
*CELL fd1eqd1_hd
*C2_R1_C1 2.970e-03 7.710e-03 2.970e-03 
*LOADS
*RC U1803:B 4.580e-05
*END

*R_NET b\[14\] 5.940e-03
*DRIVER b_reg_14_:Q
*CELL fd1eqd1_hd
*C2_R1_C1 2.970e-03 7.710e-03 2.970e-03 
*LOADS
*RC U1801:B 4.580e-05
*END

*R_NET b\[13\] 5.940e-03
*DRIVER b_reg_13_:Q
*CELL fd1eqd1_hd
*C2_R1_C1 2.970e-03 7.710e-03 2.970e-03 
*LOADS
*RC U1799:B 4.580e-05
*END

*R_NET b\[12\] 5.940e-03
*DRIVER b_reg_12_:Q
*CELL fd1eqd1_hd
*C2_R1_C1 2.970e-03 7.710e-03 2.970e-03 
*LOADS
*RC U1797:B 4.580e-05
*END

*R_NET b\[11\] 5.940e-03
*DRIVER b_reg_11_:Q
*CELL fd1eqd1_hd
*C2_R1_C1 2.970e-03 7.710e-03 2.970e-03 
*LOADS
*RC U1795:B 4.580e-05
*END

*R_NET b\[10\] 5.940e-03
*DRIVER b_reg_10_:Q
*CELL fd1eqd1_hd
*C2_R1_C1 2.970e-03 7.710e-03 2.970e-03 
*LOADS
*RC U1793:B 4.580e-05
*END

*R_NET b\[9\] 5.940e-03
*DRIVER b_reg_9_:Q
*CELL fd1eqd1_hd
*C2_R1_C1 2.970e-03 7.710e-03 2.970e-03 
*LOADS
*RC U1791:B 4.580e-05
*END

*R_NET b\[8\] 5.940e-03
*DRIVER b_reg_8_:Q
*CELL fd1eqd1_hd
*C2_R1_C1 2.970e-03 7.710e-03 2.970e-03 
*LOADS
*RC U1790:B 4.580e-05
*END

*R_NET b\[7\] 5.940e-03
*DRIVER b_reg_7_:Q
*CELL fd1eqd1_hd
*C2_R1_C1 2.970e-03 7.710e-03 2.970e-03 
*LOADS
*RC U1788:B 4.580e-05
*END

*R_NET b\[6\] 5.940e-03
*DRIVER b_reg_6_:Q
*CELL fd1eqd1_hd
*C2_R1_C1 2.970e-03 7.710e-03 2.970e-03 
*LOADS
*RC U1786:B 4.580e-05
*END

*R_NET b\[5\] 5.940e-03
*DRIVER b_reg_5_:Q
*CELL fd1eqd1_hd
*C2_R1_C1 2.970e-03 7.710e-03 2.970e-03 
*LOADS
*RC U1784:B 4.580e-05
*END

*R_NET b\[4\] 5.940e-03
*DRIVER b_reg_4_:Q
*CELL fd1eqd1_hd
*C2_R1_C1 2.970e-03 7.710e-03 2.970e-03 
*LOADS
*RC U1782:B 4.580e-05
*END

*R_NET b\[3\] 5.940e-03
*DRIVER b_reg_3_:Q
*CELL fd1eqd1_hd
*C2_R1_C1 2.970e-03 7.710e-03 2.970e-03 
*LOADS
*RC U1780:B 4.580e-05
*END

*R_NET b\[2\] 5.940e-03
*DRIVER b_reg_2_:Q
*CELL fd1eqd1_hd
*C2_R1_C1 2.970e-03 7.710e-03 2.970e-03 
*LOADS
*RC U1778:B 4.580e-05
*END

*R_NET b\[1\] 5.940e-03
*DRIVER b_reg_1_:Q
*CELL fd1eqd1_hd
*C2_R1_C1 2.970e-03 7.710e-03 2.970e-03 
*LOADS
*RC U1776:B 4.580e-05
*END

*R_NET b\[0\] 4.920e-03
*DRIVER b_reg_0_:Q
*CELL fd1eqd1_hd
*C2_R1_C1 2.460e-03 7.710e-03 2.460e-03 
*LOADS
*RC U948:B 3.793e-05
*END

*R_NET a_e\[9\] 2.909e-02
*DRIVER a_e_reg_9_:Q
*CELL fd1qd1_hd
*C2_R1_C1 1.454e-02 1.718e-02 1.454e-02 
*LOADS
*RC U650:B 4.998e-04
*RC U649:B 4.998e-04
*RC DP_OP_125J2_130_6300_U23:A 4.998e-04
*RC U1384:C 4.998e-04
*RC U1407:A 4.998e-04
*END

*R_NET a_e\[8\] 2.904e-02
*DRIVER a_e_reg_8_:Q
*CELL fd1qd1_hd
*C2_R1_C1 1.452e-02 1.718e-02 1.452e-02 
*LOADS
*RC U628:B 4.989e-04
*RC U966:B 4.989e-04
*RC U1384:B 4.989e-04
*RC U1407:B 4.989e-04
*RC DP_OP_125J2_130_6300_U24:A 4.989e-04
*END

*R_NET a_e\[7\] 1.837e-02
*DRIVER a_e_reg_7_:QN
*CELL fds2d1_hd
*C2_R1_C1 9.185e-03 1.106e-02 9.185e-03 
*LOADS
*RC U1401:C 2.032e-04
*RC U1426:D 2.032e-04
*RC DP_OP_125J2_130_6300_U25:A 2.032e-04
*END

*R_NET a_e\[6\] 2.391e-02
*DRIVER a_e_reg_6_:Q
*CELL fd1qd1_hd
*C2_R1_C1 1.196e-02 1.357e-02 1.196e-02 
*LOADS
*RC U950:D 3.245e-04
*RC U1161:C 3.245e-04
*RC DP_OP_125J2_130_6300_U26:A 3.245e-04
*RC U1669:C 3.245e-04
*END

*R_NET a_e\[5\] 2.388e-02
*DRIVER a_e_reg_5_:Q
*CELL fd1qd1_hd
*C2_R1_C1 1.194e-02 1.357e-02 1.194e-02 
*LOADS
*RC U946:D 3.241e-04
*RC U1162:C 3.241e-04
*RC DP_OP_125J2_130_6300_U27:A 3.241e-04
*RC U1669:B 3.241e-04
*END

*R_NET a_e\[4\] 2.312e-02