*SPEF "IEEE 1481-1999"
*DESIGN "float_multiplier"
*DATE "Wed Jun 17 18:13:15 2020"
*VENDOR "SYNOPSYS INC"
*PROGRAM "Synopsys Design Compiler cmos"
*VERSION "F-2011.09-SP5-3"
*DESIGN_FLOW "SYNTHESIS"
*DIVIDER /
*DELIMITER :
*BUS_DELIMITER []
*T_UNIT 1.0 NS
*C_UNIT 1.0 PF
*R_UNIT 1.0 KOHM
*L_UNIT 1.0 HENRY

*PORTS

i_A\[31\] I *L 0.000e+00 *S 0.000e+00 0.000e+00 
i_A\[30\] I *L 0.000e+00 *S 0.000e+00 0.000e+00 
i_A\[29\] I *L 3.380e-03 *S 1.833e-01 2.021e-01 *D fd4qd1_hd 
i_A\[28\] I *L 3.380e-03 *S 1.833e-01 2.021e-01 *D fd4qd1_hd 
i_A\[27\] I *L 3.380e-03 *S 1.833e-01 2.021e-01 *D fd4qd1_hd 
i_A\[26\] I *L 3.380e-03 *S 1.833e-01 2.021e-01 *D fd4qd1_hd 
i_A\[25\] I *L 3.520e-03 *S 1.845e-01 2.032e-01 *D fd4qd1_hd 
i_A\[24\] I *L 3.520e-03 *S 1.845e-01 2.032e-01 *D fd4qd1_hd 
i_A\[23\] I *L 3.380e-03 *S 1.833e-01 2.021e-01 *D fd4qd1_hd 
i_A\[22\] I *L 3.380e-03 *S 1.833e-01 2.021e-01 *D fd4qd1_hd 
i_A\[21\] I *L 0.000e+00 *S 0.000e+00 0.000e+00 
i_A\[20\] I *L 3.380e-03 *S 1.833e-01 2.021e-01 *D fd4qd1_hd 
i_A\[19\] I *L 3.380e-03 *S 1.833e-01 2.021e-01 *D fd4qd1_hd 
i_A\[18\] I *L 0.000e+00 *S 0.000e+00 0.000e+00 
i_A\[17\] I *L 3.380e-03 *S 1.833e-01 2.021e-01 *D fd4qd1_hd 
i_A\[16\] I *L 3.380e-03 *S 1.833e-01 2.021e-01 *D fd4qd1_hd 
i_A\[15\] I *L 3.520e-03 *S 1.845e-01 2.032e-01 *D fd4qd1_hd 
i_A\[14\] I *L 3.520e-03 *S 1.845e-01 2.032e-01 *D fd4qd1_hd 
i_A\[13\] I *L 0.000e+00 *S 0.000e+00 0.000e+00 
i_A\[12\] I *L 3.520e-03 *S 1.845e-01 2.032e-01 *D fd4qd1_hd 
i_A\[11\] I *L 3.380e-03 *S 1.833e-01 2.021e-01 *D fd4qd1_hd 
i_A\[10\] I *L 3.380e-03 *S 1.833e-01 2.021e-01 *D fd4qd1_hd 
i_A\[9\] I *L 3.520e-03 *S 1.845e-01 2.032e-01 *D fd4qd1_hd 
i_A\[8\] I *L 3.520e-03 *S 1.845e-01 2.032e-01 *D fd4qd1_hd 
i_A\[7\] I *L 3.380e-03 *S 1.833e-01 2.021e-01 *D fd4qd1_hd 
i_A\[6\] I *L 3.380e-03 *S 1.833e-01 2.021e-01 *D fd4qd1_hd 
i_A\[5\] I *L 3.380e-03 *S 1.833e-01 2.021e-01 *D fd4qd1_hd 
i_A\[4\] I *L 3.520e-03 *S 1.845e-01 2.032e-01 *D fd4qd1_hd 
i_A\[3\] I *L 3.380e-03 *S 1.833e-01 2.021e-01 *D fd4qd1_hd 
i_A\[2\] I *L 3.380e-03 *S 1.833e-01 2.021e-01 *D fd4qd1_hd 
i_A\[1\] I *L 3.380e-03 *S 1.833e-01 2.021e-01 *D fd4qd1_hd 
i_A\[0\] I *L 3.380e-03 *S 1.833e-01 2.021e-01 *D fd4qd1_hd 
i_B\[31\] I *L 3.440e-03 *S 1.915e-01 2.100e-01 *D fd4qd1_hd 
i_B\[30\] I *L 3.440e-03 *S 1.838e-01 2.026e-01 *D fd4qd1_hd 
i_B\[29\] I *L 3.440e-03 *S 1.838e-01 2.026e-01 *D fd4qd1_hd 
i_B\[28\] I *L 3.440e-03 *S 1.838e-01 2.026e-01 *D fd4qd1_hd 
i_B\[27\] I *L 3.440e-03 *S 1.838e-01 2.026e-01 *D fd4qd1_hd 
i_B\[26\] I *L 3.440e-03 *S 1.838e-01 2.026e-01 *D fd4qd1_hd 
i_B\[25\] I *L 3.440e-03 *S 1.838e-01 2.026e-01 *D fd4qd1_hd 
i_B\[24\] I *L 3.440e-03 *S 1.838e-01 2.026e-01 *D fd4qd1_hd 
i_B\[23\] I *L 3.440e-03 *S 1.838e-01 2.026e-01 *D fd4qd1_hd 
i_B\[22\] I *L 3.440e-03 *S 1.838e-01 2.026e-01 *D fd4qd1_hd 
i_B\[21\] I *L 3.440e-03 *S 1.838e-01 2.026e-01 *D fd4qd1_hd 
i_B\[20\] I *L 3.440e-03 *S 1.838e-01 2.026e-01 *D fd4qd1_hd 
i_B\[19\] I *L 3.440e-03 *S 1.838e-01 2.026e-01 *D fd4qd1_hd 
i_B\[18\] I *L 3.440e-03 *S 1.838e-01 2.026e-01 *D fd4qd1_hd 
i_B\[17\] I *L 3.440e-03 *S 1.838e-01 2.026e-01 *D fd4qd1_hd 
i_B\[16\] I *L 3.440e-03 *S 1.838e-01 2.026e-01 *D fd4qd1_hd 
i_B\[15\] I *L 3.440e-03 *S 1.838e-01 2.026e-01 *D fd4qd1_hd 
i_B\[14\] I *L 3.440e-03 *S 1.838e-01 2.026e-01 *D fd4qd1_hd 
i_B\[13\] I *L 3.440e-03 *S 1.838e-01 2.026e-01 *D fd4qd1_hd 
i_B\[12\] I *L 3.440e-03 *S 1.838e-01 2.026e-01 *D fd4qd1_hd 
i_B\[11\] I *L 3.440e-03 *S 1.838e-01 2.026e-01 *D fd4qd1_hd 
i_B\[10\] I *L 3.440e-03 *S 1.838e-01 2.026e-01 *D fd4qd1_hd 
i_B\[9\] I *L 3.440e-03 *S 1.838e-01 2.026e-01 *D fd4qd1_hd 
i_B\[8\] I *L 3.440e-03 *S 1.838e-01 2.026e-01 *D fd4qd1_hd 
i_B\[7\] I *L 3.440e-03 *S 1.838e-01 2.026e-01 *D fd4qd1_hd 
i_B\[6\] I *L 3.440e-03 *S 1.838e-01 2.026e-01 *D fd4qd1_hd 
i_B\[5\] I *L 3.440e-03 *S 1.838e-01 2.026e-01 *D fd4qd1_hd 
i_B\[4\] I *L 3.440e-03 *S 1.838e-01 2.026e-01 *D fd4qd1_hd 
i_B\[3\] I *L 3.440e-03 *S 1.838e-01 2.026e-01 *D fd4qd1_hd 
i_B\[2\] I *L 3.440e-03 *S 1.838e-01 2.026e-01 *D fd4qd1_hd 
i_B\[1\] I *L 3.440e-03 *S 1.838e-01 2.026e-01 *D fd4qd1_hd 
i_B\[0\] I *L 3.440e-03 *S 1.838e-01 2.026e-01 *D fd4qd1_hd 
i_AB_STB I *L 3.950e-03 *S 1.926e-01 2.110e-01 *D fd4qd1_hd 
o_AB_ACK O *L 1.035e-02 *S 1.968e-01 1.488e-01 
o_Z\[31\] O *L 1.035e-02 *S 1.288e-01 1.113e-01 
o_Z\[30\] O *L 1.035e-02 *S 1.288e-01 1.113e-01 
o_Z\[29\] O *L 1.035e-02 *S 1.288e-01 1.113e-01 
o_Z\[28\] O *L 1.035e-02 *S 1.288e-01 1.113e-01 
o_Z\[27\] O *L 1.035e-02 *S 1.288e-01 1.113e-01 
o_Z\[26\] O *L 1.035e-02 *S 1.288e-01 1.113e-01 
o_Z\[25\] O *L 1.035e-02 *S 1.288e-01 1.113e-01 
o_Z\[24\] O *L 1.035e-02 *S 1.288e-01 1.113e-01 
o_Z\[23\] O *L 1.035e-02 *S 1.288e-01 1.113e-01 
o_Z\[22\] O *L 1.035e-02 *S 1.288e-01 1.113e-01 
o_Z\[21\] O *L 1.035e-02 *S 1.288e-01 1.113e-01 
o_Z\[20\] O *L 1.035e-02 *S 1.288e-01 1.113e-01 
o_Z\[19\] O *L 1.035e-02 *S 1.288e-01 1.113e-01 
o_Z\[18\] O *L 1.035e-02 *S 1.288e-01 1.113e-01 
o_Z\[17\] O *L 1.035e-02 *S 1.288e-01 1.113e-01 
o_Z\[16\] O *L 1.035e-02 *S 1.288e-01 1.113e-01 
o_Z\[15\] O *L 1.035e-02 *S 1.288e-01 1.113e-01 
o_Z\[14\] O *L 1.035e-02 *S 1.288e-01 1.113e-01 
o_Z\[13\] O *L 1.035e-02 *S 1.288e-01 1.113e-01 
o_Z\[12\] O *L 1.035e-02 *S 1.288e-01 1.113e-01 
o_Z\[11\] O *L 1.035e-02 *S 1.288e-01 1.113e-01 
o_Z\[10\] O *L 1.035e-02 *S 1.288e-01 1.113e-01 
o_Z\[9\] O *L 1.035e-02 *S 1.288e-01 1.113e-01 
o_Z\[8\] O *L 1.035e-02 *S 1.288e-01 1.113e-01 
o_Z\[7\] O *L 1.035e-02 *S 1.288e-01 1.113e-01 
o_Z\[6\] O *L 1.035e-02 *S 1.288e-01 1.113e-01 
o_Z\[5\] O *L 1.035e-02 *S 1.288e-01 1.113e-01 
o_Z\[4\] O *L 1.035e-02 *S 1.288e-01 1.113e-01 
o_Z\[3\] O *L 1.035e-02 *S 1.288e-01 1.113e-01 
o_Z\[2\] O *L 1.035e-02 *S 1.288e-01 1.113e-01 
o_Z\[1\] O *L 1.035e-02 *S 1.288e-01 1.113e-01 
o_Z\[0\] O *L 1.035e-02 *S 1.288e-01 1.113e-01 
o_Z_STB O *L 1.035e-02 *S 1.968e-01 1.488e-01 
i_Z_ACK I *L 3.950e-03 *S 1.926e-01 2.110e-01 *D fd4qd1_hd 
i_CLK I *L 0.000e+00 *S 0.000e+00 0.000e+00 
i_RST I *L 1.418e-02 *S 0.000e+00 0.000e+00 *D fd3qd1_hd 

*R_NET n470 4.820e-03
*DRIVER U249:Y
*CELL clknd2d1_hd
*C2_R1_C1 2.410e-03 7.710e-03 2.410e-03 
*LOADS
*RC clk_r_REG3_S3:D 3.716e-05
*END

*R_NET n471 4.820e-03
*DRIVER U418:Y
*CELL scg6d1_hd
*C2_R1_C1 2.410e-03 7.710e-03 2.410e-03 
*LOADS
*RC clk_r_REG11_S5:D 3.716e-05
*END

*R_NET n472 4.820e-03
*DRIVER U419:Y
*CELL scg6d1_hd
*C2_R1_C1 2.410e-03 7.710e-03 2.410e-03 
*LOADS
*RC clk_r_REG13_S5:D 3.716e-05
*END

*R_NET n473 4.820e-03
*DRIVER U420:Y
*CELL scg6d1_hd
*C2_R1_C1 2.410e-03 7.710e-03 2.410e-03 
*LOADS
*RC clk_r_REG15_S5:D 3.716e-05
*END

*R_NET n474 4.820e-03
*DRIVER U421:Y
*CELL scg6d1_hd
*C2_R1_C1 2.410e-03 7.710e-03 2.410e-03 
*LOADS
*RC clk_r_REG17_S5:D 3.716e-05
*END

*R_NET n475 4.820e-03
*DRIVER U422:Y
*CELL scg6d1_hd
*C2_R1_C1 2.410e-03 7.710e-03 2.410e-03 
*LOADS
*RC clk_r_REG19_S5:D 3.716e-05
*END

*R_NET n476 4.820e-03
*DRIVER U423:Y
*CELL scg6d1_hd
*C2_R1_C1 2.410e-03 7.710e-03 2.410e-03 
*LOADS
*RC clk_r_REG21_S5:D 3.716e-05
*END

*R_NET n477 4.820e-03
*DRIVER U424:Y
*CELL scg6d1_hd
*C2_R1_C1 2.410e-03 7.710e-03 2.410e-03 
*LOADS
*RC clk_r_REG23_S5:D 3.716e-05
*END

*R_NET n478 4.820e-03
*DRIVER U425:Y
*CELL scg6d1_hd
*C2_R1_C1 2.410e-03 7.710e-03 2.410e-03 
*LOADS
*RC clk_r_REG25_S5:D 3.716e-05
*END

*R_NET n479 4.820e-03
*DRIVER U431:Y
*CELL oa21d1_hd
*C2_R1_C1 2.410e-03 7.710e-03 2.410e-03 
*LOADS
*RC clk_r_REG7_S3:D 3.716e-05
*END

*R_NET n480 4.820e-03
*DRIVER U436:Y
*CELL nr2bd1_hd
*C2_R1_C1 2.410e-03 7.710e-03 2.410e-03 
*LOADS
*RC clk_r_REG34_S6:D 3.716e-05
*END

*R_NET n481 4.820e-03
*DRIVER U437:Y
*CELL nr2bd1_hd
*C2_R1_C1 2.410e-03 7.710e-03 2.410e-03 
*LOADS
*RC clk_r_REG36_S6:D 3.716e-05
*END

*R_NET n482 4.820e-03
*DRIVER U438:Y
*CELL nr2bd1_hd
*C2_R1_C1 2.410e-03 7.710e-03 2.410e-03 
*LOADS
*RC clk_r_REG38_S6:D 3.716e-05
*END

*R_NET n483 4.820e-03
*DRIVER U439:Y
*CELL nr2bd1_hd
*C2_R1_C1 2.410e-03 7.710e-03 2.410e-03 
*LOADS
*RC clk_r_REG40_S6:D 3.716e-05
*END

*R_NET n484 4.820e-03
*DRIVER U440:Y
*CELL nr2bd1_hd
*C2_R1_C1 2.410e-03 7.710e-03 2.410e-03 
*LOADS
*RC clk_r_REG42_S6:D 3.716e-05
*END

*R_NET n485 4.820e-03
*DRIVER U441:Y
*CELL nr2bd1_hd
*C2_R1_C1 2.410e-03 7.710e-03 2.410e-03 
*LOADS
*RC clk_r_REG44_S6:D 3.716e-05
*END

*R_NET n486 4.820e-03
*DRIVER U442:Y
*CELL nr2bd1_hd
*C2_R1_C1 2.410e-03 7.710e-03 2.410e-03 
*LOADS
*RC clk_r_REG46_S6:D 3.716e-05
*END

*R_NET n487 4.820e-03
*DRIVER U443:Y
*CELL nr2bd1_hd
*C2_R1_C1 2.410e-03 7.710e-03 2.410e-03 
*LOADS
*RC clk_r_REG48_S6:D 3.716e-05
*END

*R_NET n488 4.820e-03
*DRIVER U444:Y
*CELL nr2bd1_hd
*C2_R1_C1 2.410e-03 7.710e-03 2.410e-03 
*LOADS
*RC clk_r_REG50_S6:D 3.716e-05
*END

*R_NET n489 4.820e-03
*DRIVER U445:Y
*CELL nr2bd1_hd
*C2_R1_C1 2.410e-03 7.710e-03 2.410e-03 
*LOADS
*RC clk_r_REG52_S6:D 3.716e-05
*END

*R_NET n490 4.820e-03
*DRIVER U446:Y
*CELL nr2bd1_hd
*C2_R1_C1 2.410e-03 7.710e-03 2.410e-03 
*LOADS
*RC clk_r_REG54_S6:D 3.716e-05
*END

*R_NET n491 4.820e-03
*DRIVER U447:Y
*CELL nr2bd1_hd
*C2_R1_C1 2.410e-03 7.710e-03 2.410e-03 
*LOADS
*RC clk_r_REG56_S6:D 3.716e-05
*END

*R_NET n492 4.820e-03
*DRIVER U448:Y
*CELL nr2bd1_hd
*C2_R1_C1 2.410e-03 7.710e-03 2.410e-03 
*LOADS
*RC clk_r_REG58_S6:D 3.716e-05
*END

*R_NET n493 4.820e-03
*DRIVER U449:Y
*CELL nr2bd1_hd
*C2_R1_C1 2.410e-03 7.710e-03 2.410e-03 
*LOADS
*RC clk_r_REG60_S6:D 3.716e-05
*END

*R_NET n494 4.820e-03
*DRIVER U450:Y
*CELL nr2bd1_hd
*C2_R1_C1 2.410e-03 7.710e-03 2.410e-03 
*LOADS
*RC clk_r_REG62_S6:D 3.716e-05
*END

*R_NET n495 4.820e-03
*DRIVER U451:Y
*CELL nr2bd1_hd
*C2_R1_C1 2.410e-03 7.710e-03 2.410e-03 
*LOADS
*RC clk_r_REG64_S6:D 3.716e-05
*END

*R_NET n496 4.820e-03
*DRIVER U452:Y
*CELL nr2bd1_hd
*C2_R1_C1 2.410e-03 7.710e-03 2.410e-03 
*LOADS
*RC clk_r_REG66_S6:D 3.716e-05
*END

*R_NET n497 4.820e-03
*DRIVER U453:Y
*CELL nr2bd1_hd
*C2_R1_C1 2.410e-03 7.710e-03 2.410e-03 
*LOADS
*RC clk_r_REG68_S6:D 3.716e-05
*END

*R_NET n498 4.820e-03
*DRIVER U454:Y
*CELL nr2bd1_hd
*C2_R1_C1 2.410e-03 7.710e-03 2.410e-03 
*LOADS
*RC clk_r_REG70_S6:D 3.716e-05
*END

*R_NET n499 4.820e-03
*DRIVER U455:Y
*CELL nr2bd1_hd
*C2_R1_C1 2.410e-03 7.710e-03 2.410e-03 
*LOADS
*RC clk_r_REG72_S6:D 3.716e-05
*END

*R_NET n500 4.820e-03
*DRIVER U456:Y
*CELL nr2bd1_hd
*C2_R1_C1 2.410e-03 7.710e-03 2.410e-03 
*LOADS
*RC clk_r_REG74_S6:D 3.716e-05
*END

*R_NET n501 4.820e-03
*DRIVER U457:Y
*CELL nr2bd1_hd
*C2_R1_C1 2.410e-03 7.710e-03 2.410e-03 
*LOADS
*RC clk_r_REG76_S6:D 3.716e-05
*END

*R_NET i_AB_STB 2.000e-02
*DRIVER i_AB_STB
*CELL fd4qd1_hd
*C2_R1_C1 1.000e-02 1.366e-02 1.000e-02 
*LOADS
*RC U248:A 2.732e-04
*END

*R_NET i_Z_ACK 2.000e-02
*DRIVER i_Z_ACK
*CELL fd4qd1_hd
*C2_R1_C1 1.000e-02 1.366e-02 1.000e-02 
*LOADS
*RC U247:A 2.732e-04
*END

*R_NET i_CLK 2.594e-02
*DRIVER i_CLK
*CELL NULL
*C2_R1_C1 1.297e-02 0.000e+00 1.297e-02 
*LOADS
*RC clk_gate_clk_r_REG0_S1_0/latch:CK 0.000e+00
*RC clk_gate_clk_r_REG8_S4_0/latch:CK 0.000e+00
*RC clk_gate_clk_r_REG7_S3_0/latch:CK 0.000e+00
*RC clk_gate_clk_r_REG159_S6_0/latch:CK 0.000e+00
*RC clk_gate_clk_r_REG188_S4_0/latch:CK 0.000e+00
*RC clk_gate_clk_r_REG169_S4_0/latch:CK 0.000e+00
*RC clk_gate_clk_r_REG131_S31_0/latch:CK 0.000e+00
*RC clk_gate_clk_r_REG97_S5_0/latch:CK 0.000e+00
*RC clk_gate_clk_r_REG98_S4_0/latch:CK 0.000e+00
*RC clk_r_REG265_S1:CK 0.000e+00
*RC clk_r_REG266_S1:CK 0.000e+00
*RC clk_r_REG202_S4:CK 0.000e+00
*RC clk_r_REG203_S4:CK 0.000e+00
*RC clk_r_REG201_S4:CK 0.000e+00
*RC clk_r_REG9_S3:CK 0.000e+00
*END

*R_NET n469 1.126e-02
*DRIVER U248:Y
*CELL clknd2d1_hd
*C2_R1_C1 5.630e-03 9.910e-03 5.630e-03 
*LOADS
*RC U61:A 1.116e-04
*RC U292:A 1.116e-04
*END

*R_NET n502 2.190e-02
*DRIVER U247:Y
*CELL clknd2d1_hd
*C2_R1_C1 1.095e-02 1.357e-02 1.095e-02 
*LOADS
*RC U23:B 2.972e-04
*RC U58:A 2.972e-04
*RC U63:A 2.972e-04
*RC U528:AN 2.972e-04
*END

*R_NET i_A\[31\] 6.840e-03
*DRIVER i_A\[31\]
*CELL NULL
*C2_R1_C1 3.420e-03 7.940e-03 3.420e-03 
*LOADS
*RC U287:B 5.431e-05
*END

*R_NET i_B\[31\] 1.988e-02
*DRIVER i_B\[31\]
*CELL fd4qd1_hd
*C2_R1_C1 9.940e-03 1.366e-02 9.940e-03 
*LOADS
*RC U287:A 2.716e-04
*END

*R_NET N33 4.820e-03
*DRIVER U287:Y
*CELL xo2d1_hd
*C2_R1_C1 2.410e-03 7.710e-03 2.410e-03 
*LOADS
*RC clk_r_REG0_S1:D 3.716e-05
*END

*R_NET guard 4.640e-03
*DRIVER U376:Y
*CELL scg5d1_hd
*C2_R1_C1 2.320e-03 7.710e-03 2.320e-03 
*LOADS
*RC clk_r_REG131_S31:D 3.577e-05
*END

*R_NET round_bit 4.640e-03
*DRIVER U327:Y
*CELL scg2d1_hd
*C2_R1_C1 2.320e-03 7.710e-03 2.320e-03 
*LOADS
*RC clk_r_REG132_S32:D 3.577e-05
*END

*R_NET sticky 4.640e-03
*DRIVER U368:Y
*CELL oa22ad1_hd
*C2_R1_C1 2.320e-03 7.710e-03 2.320e-03 
*LOADS
*RC clk_r_REG133_S33:D 3.577e-05
*END

*R_NET N41 1.173e-02
*DRIVER U533:Y
*CELL nr2d1_hd
*C2_R1_C1 5.865e-03 9.910e-03 5.865e-03 
*LOADS
*RC U62:AN 1.162e-04
*RC U288:A 1.162e-04
*END

*R_NET N45 2.519e-01
*DRIVER U293:Y
*CELL ivd4_hd
*C2_R1_C1 1.260e-01 7.170e-02 1.260e-01 
*LOADS
*RC clk_r_REG1_S2:E 1.806e-02
*RC U9:A 1.806e-02
*RC U10:A 1.806e-02
*RC U286:A 1.806e-02
*RC U285:A 1.806e-02
*RC U284:A 1.806e-02
*RC U283:A 1.806e-02
*RC U282:A 1.806e-02
*RC U281:A 1.806e-02
*RC U280:A 1.806e-02
*RC U279:A 1.806e-02
*RC U278:A 1.806e-02
*RC U277:A 1.806e-02
*RC U276:A 1.806e-02
*RC U273:A 1.806e-02
*RC U272:A 1.806e-02
*RC U271:A 1.806e-02
*RC U270:A 1.806e-02
*RC U269:A 1.806e-02
*RC U268:A 1.806e-02
*RC U267:A 1.806e-02
*RC U266:A 1.806e-02
*RC U265:A 1.806e-02
*RC U264:A 1.806e-02
*RC U263:A 1.806e-02
*RC U262:A 1.806e-02
*RC U261:A 1.806e-02
*RC U260:A 1.806e-02
*RC U259:A 1.806e-02
*RC U258:A 1.806e-02
*RC U257:A 1.806e-02
*RC U256:A 1.806e-02
*RC U255:A 1.806e-02
*RC U254:A 1.806e-02
*RC U253:A 1.806e-02
*RC U243:A 1.806e-02
*RC U242:A 1.806e-02
*RC U241:A 1.806e-02
*RC U240:A 1.806e-02
*RC U238:A 1.806e-02
*RC U237:A 1.806e-02
*RC U236:A 1.806e-02
*RC U235:A 1.806e-02
*RC U233:A 1.806e-02
*RC U232:A 1.806e-02
*RC U228:A 1.806e-02
*RC U227:A 1.806e-02
*RC U219:A 1.806e-02
*RC U210:A 1.806e-02
*RC U209:A 1.806e-02
*RC U208:A 1.806e-02
*RC U207:A 1.806e-02
*RC U206:A 1.806e-02
*RC U205:A 1.806e-02
*RC U204:A 1.806e-02
*RC U203:A 1.806e-02
*RC U202:A 1.806e-02
*RC U201:A 1.806e-02
*RC U200:A 1.806e-02
*RC U199:A 1.806e-02
*RC U198:A 1.806e-02
*END

*R_NET N85 1.704e-02
*DRIVER U25:Y
*CELL nr2d1_hd
*C2_R1_C1 8.520e-03 1.106e-02 8.520e-03 
*LOADS
*RC clk_gate_clk_r_REG8_S4_0/latch:EN 1.885e-04
*RC U64:AN 1.885e-04
*RC U528:B 1.885e-04
*END

*R_NET N250 4.870e-03
*DRIVER add_x_3/U28:Y
*CELL ivd1_hd
*C2_R1_C1 2.435e-03 7.710e-03 2.435e-03 
*LOADS
*RC U402:B 3.755e-05
*END

*R_NET N251 4.870e-03
*DRIVER add_x_3/U23:S
*CELL had1_hd
*C2_R1_C1 2.435e-03 7.710e-03 2.435e-03 
*LOADS
*RC U401:B 3.755e-05
*END

*R_NET N252 4.870e-03
*DRIVER add_x_3/U22:S
*CELL had1_hd
*C2_R1_C1 2.435e-03 7.710e-03 2.435e-03 
*LOADS
*RC U400:B 3.755e-05
*END

*R_NET N253 4.870e-03
*DRIVER add_x_3/U21:S
*CELL had1_hd
*C2_R1_C1 2.435e-03 7.710e-03 2.435e-03 
*LOADS
*RC U399:B 3.755e-05
*END

*R_NET N254 4.870e-03
*DRIVER add_x_3/U20:S
*CELL had1_hd
*C2_R1_C1 2.435e-03 7.710e-03 2.435e-03 
*LOADS
*RC U398:B 3.755e-05
*END

*R_NET N255 4.870e-03
*DRIVER add_x_3/U19:S
*CELL had1_hd
*C2_R1_C1 2.435e-03 7.710e-03 2.435e-03 
*LOADS
*RC U397:B 3.755e-05
*END

*R_NET N256 4.870e-03
*DRIVER add_x_3/U18:S
*CELL had1_hd
*C2_R1_C1 2.435e-03 7.710e-03 2.435e-03 
*LOADS
*RC U396:B 3.755e-05
*END

*R_NET N257 4.870e-03
*DRIVER add_x_3/U17:S
*CELL had1_hd
*C2_R1_C1 2.435e-03 7.710e-03 2.435e-03 
*LOADS
*RC U395:B 3.755e-05
*END

*R_NET N258 4.870e-03
*DRIVER add_x_3/U16:S
*CELL had1_hd
*C2_R1_C1 2.435e-03 7.710e-03 2.435e-03 
*LOADS
*RC U394:B 3.755e-05
*END

*R_NET N259 4.870e-03
*DRIVER add_x_3/U15:S
*CELL had1_hd
*C2_R1_C1 2.435e-03 7.710e-03 2.435e-03 
*LOADS
*RC U393:B 3.755e-05
*END

*R_NET N260 4.870e-03
*DRIVER add_x_3/U14:S
*CELL had1_hd
*C2_R1_C1 2.435e-03 7.710e-03 2.435e-03 
*LOADS
*RC U392:B 3.755e-05
*END

*R_NET N261 4.870e-03
*DRIVER add_x_3/U13:S
*CELL had1_hd
*C2_R1_C1 2.435e-03 7.710e-03 2.435e-03 
*LOADS
*RC U391:B 3.755e-05
*END

*R_NET N262 4.870e-03
*DRIVER add_x_3/U12:S
*CELL had1_hd
*C2_R1_C1 2.435e-03 7.710e-03 2.435e-03 
*LOADS
*RC U390:B 3.755e-05
*END

*R_NET N263 4.870e-03
*DRIVER add_x_3/U11:S
*CELL had1_hd
*C2_R1_C1 2.435e-03 7.710e-03 2.435e-03 
*LOADS
*RC U389:B 3.755e-05
*END

*R_NET N264 4.870e-03
*DRIVER add_x_3/U10:S
*CELL had1_hd
*C2_R1_C1 2.435e-03 7.710e-03 2.435e-03 
*LOADS
*RC U388:B 3.755e-05
*END

*R_NET N265 4.870e-03
*DRIVER add_x_3/U9:S
*CELL had1_hd
*C2_R1_C1 2.435e-03 7.710e-03 2.435e-03 
*LOADS
*RC U387:B 3.755e-05
*END

*R_NET N266 4.870e-03
*DRIVER add_x_3/U8:S
*CELL had1_hd
*C2_R1_C1 2.435e-03 7.710e-03 2.435e-03 
*LOADS
*RC U386:B 3.755e-05
*END

*R_NET N267 4.870e-03
*DRIVER add_x_3/U7:S
*CELL had1_hd
*C2_R1_C1 2.435e-03 7.710e-03 2.435e-03 
*LOADS
*RC U385:B 3.755e-05
*END

*R_NET N268 4.870e-03
*DRIVER add_x_3/U6:S
*CELL had1_hd
*C2_R1_C1 2.435e-03 7.710e-03 2.435e-03 
*LOADS
*RC U384:B 3.755e-05
*END

*R_NET N269 4.870e-03
*DRIVER add_x_3/U5:S
*CELL had1_hd
*C2_R1_C1 2.435e-03 7.710e-03 2.435e-03 
*LOADS
*RC U383:B 3.755e-05
*END

*R_NET N270 4.870e-03
*DRIVER add_x_3/U4:S
*CELL had1_hd
*C2_R1_C1 2.435e-03 7.710e-03 2.435e-03 
*LOADS
*RC U382:B 3.755e-05
*END

*R_NET N271 4.870e-03
*DRIVER add_x_3/U3:S
*CELL had1_hd
*C2_R1_C1 2.435e-03 7.710e-03 2.435e-03 
*LOADS
*RC U381:B 3.755e-05
*END

*R_NET N272 4.870e-03
*DRIVER add_x_3/U2:S
*CELL had1_hd
*C2_R1_C1 2.435e-03 7.710e-03 2.435e-03 
*LOADS
*RC U380:B 3.755e-05
*END

*R_NET N273 5.940e-03
*DRIVER add_x_3/U27:Y
*CELL xo2d1_hd
*C2_R1_C1 2.970e-03 7.710e-03 2.970e-03 
*LOADS
*RC U379:B 4.580e-05
*END

*R_NET N286 4.870e-03
*DRIVER U347:Y
*CELL ao22d1_hd
*C2_R1_C1 2.435e-03 7.710e-03 2.435e-03 
*LOADS
*RC U424:B 3.755e-05
*END

*R_NET N287 4.870e-03
*DRIVER U351:Y
*CELL ao22d1_hd
*C2_R1_C1 2.435e-03 7.710e-03 2.435e-03 
*LOADS
*RC U423:B 3.755e-05
*END

*R_NET N288 4.870e-03
*DRIVER U354:Y
*CELL ao22d1_hd
*C2_R1_C1 2.435e-03 7.710e-03 2.435e-03 
*LOADS
*RC U422:B 3.755e-05
*END

*R_NET N289 4.870e-03
*DRIVER U358:Y
*CELL ao22d1_hd
*C2_R1_C1 2.435e-03 7.710e-03 2.435e-03 
*LOADS
*RC U421:B 3.755e-05
*END

*R_NET N290 4.870e-03
*DRIVER U361:Y
*CELL ao22d1_hd
*C2_R1_C1 2.435e-03 7.710e-03 2.435e-03 
*LOADS
*RC U420:B 3.755e-05
*END

*R_NET N291 4.870e-03
*DRIVER U365:Y
*CELL ao22d1_hd
*C2_R1_C1 2.435e-03 7.710e-03 2.435e-03 
*LOADS
*RC U419:B 3.755e-05
*END

*R_NET N292 4.910e-03
*DRIVER U250:Y
*CELL xo2d1_hd
*C2_R1_C1 2.455e-03 7.710e-03 2.455e-03 
*LOADS
*RC U418:A 3.786e-05
*END

*R_NET N350 1.465e-02
*DRIVER U527:Y
*CELL scg18d1_hd
*C2_R1_C1 7.325e-03 9.910e-03 7.325e-03 
*LOADS
*RC clk_r_REG201_S4:E 1.452e-04
*RC clk_r_REG9_S3:E 1.452e-04
*END

*R_NET N380 6.780e-03
*DRIVER U486:Y
*CELL oa21d1_hd
*C2_R1_C1 3.390e-03 7.710e-03 3.390e-03 
*LOADS
*RC clk_r_REG177_S5:E 5.227e-05
*END

*R_NET N382 1.294e-02
*DRIVER U28:Y
*CELL oa21d1_hd
*C2_R1_C1 6.470e-03 9.910e-03 6.470e-03 
*LOADS
*RC clk_gate_clk_r_REG169_S4_0/latch:EN 1.282e-04
*RC U482:A 1.282e-04
*END

*R_NET N406 7.040e-03
*DRIVER U481:Y
*CELL oa21d1_hd
*C2_R1_C1 3.520e-03 7.710e-03 3.520e-03 
*LOADS
*RC clk_r_REG105_S5:E 5.428e-05
*END

*R_NET N408 7.091e-02
*DRIVER U325:Y
*CELL oa21d2_hd
*C2_R1_C1 3.546e-02 2.299e-02 3.546e-02 
*LOADS
*RC clk_r_REG98_S4:E 1.630e-03
*RC clk_r_REG88_S4:E 1.630e-03
*RC clk_r_REG89_S4:E 1.630e-03
*RC clk_r_REG90_S4:E 1.630e-03
*RC clk_r_REG91_S4:E 1.630e-03
*RC clk_r_REG92_S4:E 1.630e-03
*RC clk_r_REG93_S4:E 1.630e-03
*RC clk_r_REG6_S2:E 1.630e-03
*RC clk_r_REG94_S2:E 1.630e-03
*RC clk_r_REG95_S2:E 1.630e-03
*END

*R_NET N419 7.091e-02
*DRIVER U302:Y
*CELL oa21d2_hd
*C2_R1_C1 3.546e-02 2.299e-02 3.546e-02 
*LOADS
*RC clk_r_REG96_S4:E 1.630e-03
*RC clk_r_REG10_S4:E 1.630e-03
*RC clk_r_REG80_S4:E 1.630e-03
*RC clk_r_REG81_S4:E 1.630e-03
*RC clk_r_REG82_S4:E 1.630e-03
*RC clk_r_REG83_S4:E 1.630e-03
*RC clk_r_REG84_S4:E 1.630e-03
*RC clk_r_REG85_S4:E 1.630e-03
*RC clk_r_REG86_S4:E 1.630e-03
*RC clk_r_REG87_S4:E 1.630e-03
*END

*R_NET N430 1.291e-02
*DRIVER U26:Y
*CELL clknd2d1_hd
*C2_R1_C1 6.455e-03 9.910e-03 6.455e-03 
*LOADS
*RC clk_gate_clk_r_REG7_S3_0/latch:EN 1.279e-04
*RC U490:B 1.279e-04
*END

*R_NET N463 3.365e-02
*DRIVER U403:Y
*CELL scg18d1_hd
*C2_R1_C1 1.682e-02 1.718e-02 1.682e-02 
*LOADS
*RC clk_gate_clk_r_REG97_S5_0/latch:EN 5.781e-04
*RC clk_r_REG27_S5:E 5.781e-04
*RC clk_r_REG33_S5:E 5.781e-04
*RC clk_r_REG78_S5:E 5.781e-04
*RC clk_r_REG79_S5:E 5.781e-04
*END

*R_NET N498 1.980e-02
*DRIVER U39:Y
*CELL nd2bd1_hd
*C2_R1_C1 9.900e-03 1.106e-02 9.900e-03 
*LOADS
*RC clk_gate_clk_r_REG131_S31_0/latch:EN 2.190e-04
*RC clk_r_REG130_S30:E 2.190e-04
*RC clk_r_REG107_S7:E 2.190e-04
*END

*R_NET N501 1.859e-02
*DRIVER U377:Y
*CELL nd2bd1_hd
*C2_R1_C1 9.295e-03 1.106e-02 9.295e-03 
*LOADS
*RC U39:AN 2.056e-04
*RC clk_r_REG132_S32:E 2.056e-04
*RC clk_r_REG131_S31:E 2.056e-04
*END

*R_NET N502 1.309e-02
*DRIVER U252:Y
*CELL clknd2d1_hd
*C2_R1_C1 6.545e-03 9.910e-03 6.545e-03 
*LOADS
*RC clk_r_REG133_S33:E 1.297e-04
*RC U377:AN 1.297e-04
*END

*R_NET C76_DATA2_0 4.730e-03
*DRIVER U275:Y
*CELL xo2d1_hd
*C2_R1_C1 2.365e-03 7.710e-03 2.365e-03 
*LOADS
*RC U469:A 3.647e-05
*END

*R_NET C76_DATA2_1 4.910e-03
*DRIVER DP_OP_105_124_8121_U11:S
*CELL fad1_hd
*C2_R1_C1 2.455e-03 7.710e-03 2.455e-03 
*LOADS
*RC U468:A 3.786e-05
*END

*R_NET C76_DATA2_2 4.730e-03
*DRIVER DP_OP_105_124_8121_U10:S
*CELL fad1_hd
*C2_R1_C1 2.365e-03 7.710e-03 2.365e-03 
*LOADS
*RC U467:A 3.647e-05
*END

*R_NET C76_DATA2_3 4.730e-03
*DRIVER DP_OP_105_124_8121_U9:S
*CELL fad1_hd
*C2_R1_C1 2.365e-03 7.710e-03 2.365e-03 
*LOADS
*RC U466:A 3.647e-05
*END

*R_NET C76_DATA2_4 4.730e-03
*DRIVER DP_OP_105_124_8121_U8:S
*CELL fad1_hd
*C2_R1_C1 2.365e-03 7.710e-03 2.365e-03 
*LOADS
*RC U465:A 3.647e-05
*END

*R_NET C76_DATA2_5 4.730e-03
*DRIVER DP_OP_105_124_8121_U7:S
*CELL fad1_hd
*C2_R1_C1 2.365e-03 7.710e-03 2.365e-03 
*LOADS
*RC U464:A 3.647e-05
*END

*R_NET C76_DATA2_6 4.730e-03
*DRIVER DP_OP_105_124_8121_U6:S
*CELL fad1_hd
*C2_R1_C1 2.365e-03 7.710e-03 2.365e-03 
*LOADS
*RC U463:A 3.647e-05
*END

*R_NET C76_DATA2_7 4.910e-03
*DRIVER U342:Y
*CELL ao22d1_hd
*C2_R1_C1 2.455e-03 7.710e-03 2.455e-03 
*LOADS
*RC U462:A 3.786e-05
*END

*R_NET C76_DATA2_8 4.910e-03
*DRIVER U244:Y
*CELL xo2d1_hd
*C2_R1_C1 2.455e-03 7.710e-03 2.455e-03 
*LOADS
*RC U461:A 3.786e-05
*END

*R_NET C76_DATA2_9 4.910e-03
*DRIVER U245:Y
*CELL xo2d1_hd
*C2_R1_C1 2.455e-03 7.710e-03 2.455e-03 
*LOADS
*RC U460:A 3.786e-05
*END

*R_NET C72_DATA2_0 4.730e-03
*DRIVER U297:Y
*CELL xo2d1_hd
*C2_R1_C1 2.365e-03 7.710e-03 2.365e-03 
*LOADS
*RC U479:A 3.647e-05
*END

*R_NET C72_DATA2_1 4.910e-03
*DRIVER DP_OP_102_127_8889_U11:S
*CELL fad1_hd
*C2_R1_C1 2.455e-03 7.710e-03 2.455e-03 
*LOADS
*RC U478:A 3.786e-05
*END

*R_NET C72_DATA2_2 4.730e-03
*DRIVER DP_OP_102_127_8889_U10:S
*CELL fad1_hd
*C2_R1_C1 2.365e-03 7.710e-03 2.365e-03 
*LOADS
*RC U477:A 3.647e-05
*END

*R_NET C72_DATA2_3 4.730e-03
*DRIVER DP_OP_102_127_8889_U9:S
*CELL fad1_hd
*C2_R1_C1 2.365e-03 7.710e-03 2.365e-03 
*LOADS
*RC U476:A 3.647e-05
*END

*R_NET C72_DATA2_4 4.730e-03
*DRIVER DP_OP_102_127_8889_U8:S
*CELL fad1_hd
*C2_R1_C1 2.365e-03 7.710e-03 2.365e-03 
*LOADS
*RC U475:A 3.647e-05
*END

*R_NET C72_DATA2_5 4.730e-03
*DRIVER DP_OP_102_127_8889_U7:S
*CELL fad1_hd
*C2_R1_C1 2.365e-03 7.710e-03 2.365e-03 
*LOADS
*RC U474:A 3.647e-05
*END

*R_NET C72_DATA2_6 4.730e-03
*DRIVER DP_OP_102_127_8889_U6:S
*CELL fad1_hd
*C2_R1_C1 2.365e-03 7.710e-03 2.365e-03 
*LOADS
*RC U473:A 3.647e-05
*END

*R_NET C72_DATA2_7 4.910e-03
*DRIVER U336:Y
*CELL ao22d1_hd
*C2_R1_C1 2.455e-03 7.710e-03 2.455e-03 
*LOADS
*RC U472:A 3.786e-05
*END

*R_NET C72_DATA2_8 4.910e-03
*DRIVER U239:Y
*CELL xo2d1_hd
*C2_R1_C1 2.455e-03 7.710e-03 2.455e-03 
*LOADS
*RC U471:A 3.786e-05
*END

*R_NET C72_DATA2_9 4.910e-03
*DRIVER U274:Y
*CELL xo2d1_hd
*C2_R1_C1 2.455e-03 7.710e-03 2.455e-03 
*LOADS
*RC U470:A 3.786e-05
*END

*R_NET n4 1.413e-02
*DRIVER U11:Y
*CELL ivd1_hd
*C2_R1_C1 7.065e-03 7.710e-03 7.065e-03 
*LOADS
*RC U12:A 1.089e-04
*END

*R_NET n5 1.413e-02
*DRIVER U14:Y
*CELL ivd1_hd
*C2_R1_C1 7.065e-03 7.710e-03 7.065e-03 
*LOADS
*RC U22:A 1.089e-04
*END

*R_NET n6 1.413e-02
*DRIVER U15:Y
*CELL ivd1_hd
*C2_R1_C1 7.065e-03 7.710e-03 7.065e-03 
*LOADS
*RC U20:A 1.089e-04
*END

*R_NET n7 1.413e-02
*DRIVER U16:Y
*CELL ivd1_hd
*C2_R1_C1 7.065e-03 7.710e-03 7.065e-03 
*LOADS
*RC U21:A 1.089e-04
*END

*R_NET n8 1.413e-02
*DRIVER U17:Y
*CELL ivd1_hd
*C2_R1_C1 7.065e-03 7.710e-03 7.065e-03 
*LOADS
*RC U19:A 1.089e-04
*END

*R_NET n9 1.413e-02
*DRIVER U18:Y
*CELL ivd1_hd
*C2_R1_C1 7.065e-03 7.710e-03 7.065e-03 
*LOADS
*RC U13:A 1.089e-04
*END

*R_NET C1_Z_9 5.730e-03
*DRIVER U540:Y
*CELL ad2d1_hd
*C2_R1_C1 2.865e-03 7.710e-03 2.865e-03 
*LOADS
*RC U274:A 4.418e-05
*END

*R_NET C1_Z_8 1.318e-02
*DRIVER U541:Y
*CELL nr2bd1_hd
*C2_R1_C1 6.590e-03 9.910e-03 6.590e-03 
*LOADS
*RC U338:C 1.306e-04
*RC U239:A 1.306e-04
*END

*R_NET C1_Z_7 2.486e-02
*DRIVER U228:Y
*CELL scg2d1_hd
*C2_R1_C1 1.243e-02 1.357e-02 1.243e-02 
*LOADS
*RC U338:B 3.374e-04
*RC U337:A 3.374e-04
*RC U336:A 3.374e-04
*RC U335:A 3.374e-04
*END

*R_NET C1_Z_6 6.000e-03
*DRIVER U207:Y
*CELL scg2d1_hd
*C2_R1_C1 3.000e-03 7.710e-03 3.000e-03 
*LOADS
*RC DP_OP_102_127_8889_U6:B 4.626e-05
*END

*R_NET C1_Z_5 6.000e-03
*DRIVER U199:Y
*CELL scg2d1_hd
*C2_R1_C1 3.000e-03 7.710e-03 3.000e-03 
*LOADS
*RC DP_OP_102_127_8889_U7:B 4.626e-05
*END

*R_NET C1_Z_4 6.000e-03
*DRIVER U201:Y
*CELL scg2d1_hd
*C2_R1_C1 3.000e-03 7.710e-03 3.000e-03 
*LOADS
*RC DP_OP_102_127_8889_U8:B 4.626e-05
*END

*R_NET C1_Z_3 6.000e-03
*DRIVER U204:Y
*CELL scg2d1_hd
*C2_R1_C1 3.000e-03 7.710e-03 3.000e-03 
*LOADS
*RC DP_OP_102_127_8889_U9:B 4.626e-05
*END

*R_NET C1_Z_2 6.000e-03
*DRIVER U202:Y
*CELL scg2d1_hd
*C2_R1_C1 3.000e-03 7.710e-03 3.000e-03 
*LOADS
*RC DP_OP_102_127_8889_U10:B 4.626e-05
*END

*R_NET C1_Z_1 6.000e-03
*DRIVER U206:Y
*CELL scg2d1_hd
*C2_R1_C1 3.000e-03 7.710e-03 3.000e-03 
*LOADS
*RC DP_OP_102_127_8889_U11:B 4.626e-05
*END

*R_NET C1_Z_0 1.210e-02
*DRIVER U227:Y
*CELL scg2d1_hd
*C2_R1_C1 6.050e-03 9.910e-03 6.050e-03 
*LOADS
*RC U339:AN 1.199e-04
*RC U297:A 1.199e-04
*END

*R_NET C2_Z_0 6.171e-02
*DRIVER U298:Y
*CELL nr2ad1_hd
*C2_R1_C1 3.086e-02 2.370e-02 3.086e-02 
*LOADS
*RC U479:B 1.463e-03
*RC U478:B 1.463e-03
*RC U477:B 1.463e-03
*RC U476:B 1.463e-03
*RC U475:B 1.463e-03
*RC U474:B 1.463e-03
*RC U473:B 1.463e-03
*RC U472:B 1.463e-03
*RC U471:B 1.463e-03
*RC U470:B 1.463e-03
*RC U339:B 1.463e-03
*RC U297:B 1.463e-03
*END

*R_NET n1 5.713e-02
*DRIVER U299:Y
*CELL oa21d2_hd
*C2_R1_C1 2.856e-02 2.335e-02 2.856e-02 
*LOADS
*RC U490:A 1.334e-03
*RC DP_OP_114_130_61/U47:A 1.334e-03
*RC DP_OP_114_130_61/U43:A 1.334e-03
*RC DP_OP_114_130_61/U42:A 1.334e-03
*RC DP_OP_114_130_61/U41:A 1.334e-03
*RC DP_OP_114_130_61/U40:A 1.334e-03
*RC DP_OP_114_130_61/U39:A 1.334e-03
*RC DP_OP_114_130_61/U38:B 1.334e-03
*RC DP_OP_114_130_61/U37:A 1.334e-03
*RC DP_OP_114_130_61/U36:A 1.334e-03
*RC DP_OP_114_130_61/U35:A 1.334e-03
*END

*R_NET DP_OP_105_124_8121_n9 5.650e-03
*DRIVER U345:Y
*CELL nd2bd1_hd
*C2_R1_C1 2.825e-03 7.710e-03 2.825e-03 
*LOADS
*RC DP_OP_105_124_8121_U11:CI 4.356e-05
*END

*R_NET DP_OP_105_124_8121_n8 5.650e-03
*DRIVER DP_OP_105_124_8121_U11:CO
*CELL fad1_hd
*C2_R1_C1 2.825e-03 7.710e-03 2.825e-03 
*LOADS
*RC DP_OP_105_124_8121_U10:CI 4.356e-05
*END

*R_NET DP_OP_105_124_8121_n7 5.650e-03
*DRIVER DP_OP_105_124_8121_U10:CO
*CELL fad1_hd
*C2_R1_C1 2.825e-03 7.710e-03 2.825e-03 
*LOADS
*RC DP_OP_105_124_8121_U9:CI 4.356e-05
*END

*R_NET DP_OP_105_124_8121_n6 5.650e-03
*DRIVER DP_OP_105_124_8121_U9:CO
*CELL fad1_hd
*C2_R1_C1 2.825e-03 7.710e-03 2.825e-03 
*LOADS
*RC DP_OP_105_124_8121_U8:CI 4.356e-05
*END

*R_NET DP_OP_105_124_8121_n5 5.650e-03
*DRIVER DP_OP_105_124_8121_U8:CO
*CELL fad1_hd
*C2_R1_C1 2.825e-03 7.710e-03 2.825e-03 
*LOADS
*RC DP_OP_105_124_8121_U7:CI 4.356e-05
*END

*R_NET DP_OP_105_124_8121_n4 5.650e-03
*DRIVER DP_OP_105_124_8121_U7:CO
*CELL fad1_hd
*C2_R1_C1 2.825e-03 7.710e-03 2.825e-03 
*LOADS
*RC DP_OP_105_124_8121_U6:CI 4.356e-05
*END

*R_NET DP_OP_105_124_8121_n3 2.499e-02
*DRIVER DP_OP_105_124_8121_U6:CO
*CELL fad1_hd
*C2_R1_C1 1.249e-02 1.357e-02 1.249e-02 
*LOADS
*RC U344:A 3.391e-04
*RC U343:B 3.391e-04
*RC U342:C 3.391e-04
*RC U340:A 3.391e-04
*END

*R_NET DP_OP_102_127_8889_n9 5.650e-03
*DRIVER U339:Y
*CELL nd2bd1_hd
*C2_R1_C1 2.825e-03 7.710e-03 2.825e-03 
*LOADS
*RC DP_OP_102_127_8889_U11:CI 4.356e-05
*END

*R_NET DP_OP_102_127_8889_n8 5.650e-03
*DRIVER DP_OP_102_127_8889_U11:CO
*CELL fad1_hd
*C2_R1_C1 2.825e-03 7.710e-03 2.825e-03 
*LOADS
*RC DP_OP_102_127_8889_U10:CI 4.356e-05
*END

*R_NET DP_OP_102_127_8889_n7 5.650e-03
*DRIVER DP_OP_102_127_8889_U10:CO
*CELL fad1_hd
*C2_R1_C1 2.825e-03 7.710e-03 2.825e-03 
*LOADS
*RC DP_OP_102_127_8889_U9:CI 4.356e-05
*END

*R_NET DP_OP_102_127_8889_n6 5.650e-03
*DRIVER DP_OP_102_127_8889_U9:CO
*CELL fad1_hd
*C2_R1_C1 2.825e-03 7.710e-03 2.825e-03 
*LOADS
*RC DP_OP_102_127_8889_U8:CI 4.356e-05
*END

*R_NET DP_OP_102_127_8889_n5 5.650e-03
*DRIVER DP_OP_102_127_8889_U8:CO
*CELL fad1_hd
*C2_R1_C1 2.825e-03 7.710e-03 2.825e-03 
*LOADS
*RC DP_OP_102_127_8889_U7:CI 4.356e-05
*END

*R_NET DP_OP_102_127_8889_n4 5.650e-03
*DRIVER DP_OP_102_127_8889_U7:CO
*CELL fad1_hd
*C2_R1_C1 2.825e-03 7.710e-03 2.825e-03 
*LOADS
*RC DP_OP_102_127_8889_U6:CI 4.356e-05
*END

*R_NET DP_OP_102_127_8889_n3 2.499e-02
*DRIVER DP_OP_102_127_8889_U6:CO
*CELL fad1_hd
*C2_R1_C1 1.249e-02 1.357e-02 1.249e-02 
*LOADS
*RC U338:A 3.391e-04
*RC U337:B 3.391e-04
*RC U336:C 3.391e-04
*RC U334:A 3.391e-04
*END

*R_NET n37 3.024e-02
*DRIVER U289:Y
*CELL or2d1_hd
*C2_R1_C1 1.512e-02 1.718e-02 1.512e-02 
*LOADS
*RC U307:A 5.195e-04
*RC U378:A 5.195e-04
*RC U309:A 5.195e-04
*RC U308:A 5.195e-04
*RC U299:C 5.195e-04
*END

*R_NET n39 1.884e-02
*DRIVER U291:Y
*CELL scg9d1_hd
*C2_R1_C1 9.420e-03 1.106e-02 9.420e-03 
*LOADS
*RC U27:A 2.084e-04
*RC U486:C 2.084e-04
*RC U325:C 2.084e-04
*END

*R_NET n40 1.265e-02
*DRIVER U292:Y
*CELL or2d1_hd
*C2_R1_C1 6.325e-03 9.910e-03 6.325e-03 