*SPEF "IEEE 1481-1999"
*DESIGN "float_adder"
*DATE "Wed Aug 26 17:13:31 2020"
*VENDOR "SYNOPSYS INC"
*PROGRAM "Synopsys Design Compiler cmos"
*VERSION "F-2011.09-SP5-3"
*DESIGN_FLOW "SYNTHESIS"
*DIVIDER /
*DELIMITER :
*BUS_DELIMITER []
*T_UNIT 1.0 NS
*C_UNIT 1.0 PF
*R_UNIT 1.0 KOHM
*L_UNIT 1.0 HENRY

*PORTS

i_A\[31\] I *L 4.580e-03 *S 1.934e-01 2.117e-01 *D fd4qd1_hd 
i_A\[30\] I *L 4.580e-03 *S 1.934e-01 2.117e-01 *D fd4qd1_hd 
i_A\[29\] I *L 4.580e-03 *S 1.934e-01 2.117e-01 *D fd4qd1_hd 
i_A\[28\] I *L 4.580e-03 *S 1.934e-01 2.117e-01 *D fd4qd1_hd 
i_A\[27\] I *L 4.580e-03 *S 1.934e-01 2.117e-01 *D fd4qd1_hd 
i_A\[26\] I *L 4.580e-03 *S 1.934e-01 2.117e-01 *D fd4qd1_hd 
i_A\[25\] I *L 4.580e-03 *S 1.934e-01 2.117e-01 *D fd4qd1_hd 
i_A\[24\] I *L 4.580e-03 *S 1.934e-01 2.117e-01 *D fd4qd1_hd 
i_A\[23\] I *L 4.580e-03 *S 1.934e-01 2.117e-01 *D fd4qd1_hd 
i_A\[22\] I *L 4.580e-03 *S 1.934e-01 2.117e-01 *D fd4qd1_hd 
i_A\[21\] I *L 4.580e-03 *S 1.934e-01 2.117e-01 *D fd4qd1_hd 
i_A\[20\] I *L 4.580e-03 *S 1.934e-01 2.117e-01 *D fd4qd1_hd 
i_A\[19\] I *L 4.580e-03 *S 1.934e-01 2.117e-01 *D fd4qd1_hd 
i_A\[18\] I *L 4.580e-03 *S 1.934e-01 2.117e-01 *D fd4qd1_hd 
i_A\[17\] I *L 4.580e-03 *S 1.934e-01 2.117e-01 *D fd4qd1_hd 
i_A\[16\] I *L 4.580e-03 *S 1.934e-01 2.117e-01 *D fd4qd1_hd 
i_A\[15\] I *L 4.580e-03 *S 1.934e-01 2.117e-01 *D fd4qd1_hd 
i_A\[14\] I *L 4.580e-03 *S 1.934e-01 2.117e-01 *D fd4qd1_hd 
i_A\[13\] I *L 4.580e-03 *S 1.934e-01 2.117e-01 *D fd4qd1_hd 
i_A\[12\] I *L 4.580e-03 *S 1.934e-01 2.117e-01 *D fd4qd1_hd 
i_A\[11\] I *L 4.580e-03 *S 1.934e-01 2.117e-01 *D fd4qd1_hd 
i_A\[10\] I *L 4.580e-03 *S 1.934e-01 2.117e-01 *D fd4qd1_hd 
i_A\[9\] I *L 4.580e-03 *S 1.934e-01 2.117e-01 *D fd4qd1_hd 
i_A\[8\] I *L 4.580e-03 *S 1.934e-01 2.117e-01 *D fd4qd1_hd 
i_A\[7\] I *L 4.580e-03 *S 1.934e-01 2.117e-01 *D fd4qd1_hd 
i_A\[6\] I *L 4.580e-03 *S 1.934e-01 2.117e-01 *D fd4qd1_hd 
i_A\[5\] I *L 4.580e-03 *S 1.934e-01 2.117e-01 *D fd4qd1_hd 
i_A\[4\] I *L 4.580e-03 *S 1.934e-01 2.117e-01 *D fd4qd1_hd 
i_A\[3\] I *L 4.580e-03 *S 1.934e-01 2.117e-01 *D fd4qd1_hd 
i_A\[2\] I *L 4.580e-03 *S 1.934e-01 2.117e-01 *D fd4qd1_hd 
i_A\[1\] I *L 4.580e-03 *S 1.934e-01 2.117e-01 *D fd4qd1_hd 
i_A\[0\] I *L 4.580e-03 *S 1.934e-01 2.117e-01 *D fd4qd1_hd 
i_B\[31\] I *L 3.480e-03 *S 1.842e-01 2.029e-01 *D fd4qd1_hd 
i_B\[30\] I *L 3.480e-03 *S 1.842e-01 2.029e-01 *D fd4qd1_hd 
i_B\[29\] I *L 3.480e-03 *S 1.842e-01 2.029e-01 *D fd4qd1_hd 
i_B\[28\] I *L 3.480e-03 *S 1.842e-01 2.029e-01 *D fd4qd1_hd 
i_B\[27\] I *L 3.480e-03 *S 1.842e-01 2.029e-01 *D fd4qd1_hd 
i_B\[26\] I *L 3.480e-03 *S 1.842e-01 2.029e-01 *D fd4qd1_hd 
i_B\[25\] I *L 3.480e-03 *S 1.842e-01 2.029e-01 *D fd4qd1_hd 
i_B\[24\] I *L 3.480e-03 *S 1.842e-01 2.029e-01 *D fd4qd1_hd 
i_B\[23\] I *L 3.480e-03 *S 1.842e-01 2.029e-01 *D fd4qd1_hd 
i_B\[22\] I *L 3.480e-03 *S 1.842e-01 2.029e-01 *D fd4qd1_hd 
i_B\[21\] I *L 3.480e-03 *S 1.842e-01 2.029e-01 *D fd4qd1_hd 
i_B\[20\] I *L 3.480e-03 *S 1.842e-01 2.029e-01 *D fd4qd1_hd 
i_B\[19\] I *L 3.480e-03 *S 1.842e-01 2.029e-01 *D fd4qd1_hd 
i_B\[18\] I *L 3.480e-03 *S 1.842e-01 2.029e-01 *D fd4qd1_hd 
i_B\[17\] I *L 3.480e-03 *S 1.842e-01 2.029e-01 *D fd4qd1_hd 
i_B\[16\] I *L 3.480e-03 *S 1.842e-01 2.029e-01 *D fd4qd1_hd 
i_B\[15\] I *L 3.480e-03 *S 1.842e-01 2.029e-01 *D fd4qd1_hd 
i_B\[14\] I *L 3.480e-03 *S 1.842e-01 2.029e-01 *D fd4qd1_hd 
i_B\[13\] I *L 3.480e-03 *S 1.842e-01 2.029e-01 *D fd4qd1_hd 
i_B\[12\] I *L 3.480e-03 *S 1.842e-01 2.029e-01 *D fd4qd1_hd 
i_B\[11\] I *L 3.480e-03 *S 1.842e-01 2.029e-01 *D fd4qd1_hd 
i_B\[10\] I *L 3.480e-03 *S 1.842e-01 2.029e-01 *D fd4qd1_hd 
i_B\[9\] I *L 3.480e-03 *S 1.842e-01 2.029e-01 *D fd4qd1_hd 
i_B\[8\] I *L 3.480e-03 *S 1.842e-01 2.029e-01 *D fd4qd1_hd 
i_B\[7\] I *L 3.480e-03 *S 1.842e-01 2.029e-01 *D fd4qd1_hd 
i_B\[6\] I *L 3.480e-03 *S 1.842e-01 2.029e-01 *D fd4qd1_hd 
i_B\[5\] I *L 3.480e-03 *S 1.842e-01 2.029e-01 *D fd4qd1_hd 
i_B\[4\] I *L 3.480e-03 *S 1.842e-01 2.029e-01 *D fd4qd1_hd 
i_B\[3\] I *L 3.480e-03 *S 1.842e-01 2.029e-01 *D fd4qd1_hd 
i_B\[2\] I *L 3.480e-03 *S 1.842e-01 2.029e-01 *D fd4qd1_hd 
i_B\[1\] I *L 3.480e-03 *S 1.842e-01 2.029e-01 *D fd4qd1_hd 
i_B\[0\] I *L 3.480e-03 *S 1.842e-01 2.029e-01 *D fd4qd1_hd 
i_AB_STB I *L 1.900e-03 *S 1.411e-01 1.612e-01 *D fd4qd1_hd 
o_AB_ACK O *L 1.035e-02 *S 1.968e-01 1.488e-01 
o_Z\[31\] O *L 1.035e-02 *S 1.806e-01 1.480e-01 
o_Z\[30\] O *L 1.035e-02 *S 1.806e-01 1.480e-01 
o_Z\[29\] O *L 1.035e-02 *S 1.806e-01 1.480e-01 
o_Z\[28\] O *L 1.035e-02 *S 1.806e-01 1.480e-01 
o_Z\[27\] O *L 1.035e-02 *S 1.806e-01 1.480e-01 
o_Z\[26\] O *L 1.035e-02 *S 1.806e-01 1.480e-01 
o_Z\[25\] O *L 1.035e-02 *S 1.806e-01 1.480e-01 
o_Z\[24\] O *L 1.035e-02 *S 1.806e-01 1.480e-01 
o_Z\[23\] O *L 1.035e-02 *S 1.806e-01 1.480e-01 
o_Z\[22\] O *L 1.035e-02 *S 1.806e-01 1.480e-01 
o_Z\[21\] O *L 1.035e-02 *S 1.806e-01 1.480e-01 
o_Z\[20\] O *L 1.035e-02 *S 1.806e-01 1.480e-01 
o_Z\[19\] O *L 1.035e-02 *S 1.806e-01 1.480e-01 
o_Z\[18\] O *L 1.035e-02 *S 1.806e-01 1.480e-01 
o_Z\[17\] O *L 1.035e-02 *S 1.806e-01 1.480e-01 
o_Z\[16\] O *L 1.035e-02 *S 1.806e-01 1.480e-01 
o_Z\[15\] O *L 1.035e-02 *S 1.806e-01 1.480e-01 
o_Z\[14\] O *L 1.035e-02 *S 1.806e-01 1.480e-01 
o_Z\[13\] O *L 1.035e-02 *S 1.806e-01 1.480e-01 
o_Z\[12\] O *L 1.035e-02 *S 1.806e-01 1.480e-01 
o_Z\[11\] O *L 1.035e-02 *S 1.806e-01 1.480e-01 
o_Z\[10\] O *L 1.035e-02 *S 1.806e-01 1.480e-01 
o_Z\[9\] O *L 1.035e-02 *S 1.806e-01 1.480e-01 
o_Z\[8\] O *L 1.035e-02 *S 1.806e-01 1.480e-01 
o_Z\[7\] O *L 1.035e-02 *S 1.806e-01 1.480e-01 
o_Z\[6\] O *L 1.035e-02 *S 1.806e-01 1.480e-01 
o_Z\[5\] O *L 1.035e-02 *S 1.806e-01 1.480e-01 
o_Z\[4\] O *L 1.035e-02 *S 1.806e-01 1.480e-01 
o_Z\[3\] O *L 1.035e-02 *S 1.806e-01 1.480e-01 
o_Z\[2\] O *L 1.035e-02 *S 1.806e-01 1.480e-01 
o_Z\[1\] O *L 1.035e-02 *S 1.806e-01 1.480e-01 
o_Z\[0\] O *L 1.035e-02 *S 1.806e-01 1.480e-01 
o_Z_STB O *L 1.035e-02 *S 3.470e-01 2.414e-01 
i_Z_ACK I *L 1.900e-03 *S 1.411e-01 1.612e-01 *D fd4qd1_hd 
i_CLK I *L 0.000e+00 *S 0.000e+00 0.000e+00 
i_RST I *L 0.000e+00 *S 0.000e+00 0.000e+00 *D nid1_hd 

*R_NET n696 4.680e-03
*DRIVER U697:Y
*CELL oa211d1_hd
*C2_R1_C1 2.340e-03 7.370e-03 2.340e-03 
*LOADS
*RC clk_r_REG20_S21:D 3.449e-05
*END

*R_NET n697 4.680e-03
*DRIVER U345:Y
*CELL clknd2d1_hd
*C2_R1_C1 2.340e-03 7.370e-03 2.340e-03 
*LOADS
*RC clk_r_REG22_S21:D 3.449e-05
*END

*R_NET n698 4.680e-03
*DRIVER U344:Y
*CELL clknd2d1_hd
*C2_R1_C1 2.340e-03 7.370e-03 2.340e-03 
*LOADS
*RC clk_r_REG24_S21:D 3.449e-05
*END

*R_NET n699 4.680e-03
*DRIVER U343:Y
*CELL clknd2d1_hd
*C2_R1_C1 2.340e-03 7.370e-03 2.340e-03 
*LOADS
*RC clk_r_REG26_S21:D 3.449e-05
*END

*R_NET n700 4.680e-03
*DRIVER U342:Y
*CELL clknd2d1_hd
*C2_R1_C1 2.340e-03 7.370e-03 2.340e-03 
*LOADS
*RC clk_r_REG28_S21:D 3.449e-05
*END

*R_NET n701 4.680e-03
*DRIVER U341:Y
*CELL clknd2d1_hd
*C2_R1_C1 2.340e-03 7.370e-03 2.340e-03 
*LOADS
*RC clk_r_REG30_S21:D 3.449e-05
*END

*R_NET n702 4.680e-03
*DRIVER U340:Y
*CELL clknd2d1_hd
*C2_R1_C1 2.340e-03 7.370e-03 2.340e-03 
*LOADS
*RC clk_r_REG32_S21:D 3.449e-05
*END

*R_NET n703 4.680e-03
*DRIVER U339:Y
*CELL clknd2d1_hd
*C2_R1_C1 2.340e-03 7.370e-03 2.340e-03 
*LOADS
*RC clk_r_REG34_S21:D 3.449e-05
*END

*R_NET n704 4.680e-03
*DRIVER U338:Y
*CELL clknd2d1_hd
*C2_R1_C1 2.340e-03 7.370e-03 2.340e-03 
*LOADS
*RC clk_r_REG36_S21:D 3.449e-05
*END

*R_NET n705 4.680e-03
*DRIVER U725:Y
*CELL scg18d1_hd
*C2_R1_C1 2.340e-03 7.370e-03 2.340e-03 
*LOADS
*RC clk_r_REG38_S20:D 3.449e-05
*END

*R_NET n706 4.680e-03
*DRIVER U730:Y
*CELL oa21d1_hd
*C2_R1_C1 2.340e-03 7.370e-03 2.340e-03 
*LOADS
*RC clk_r_REG40_S19:D 3.449e-05
*END

*R_NET n707 4.680e-03
*DRIVER U732:Y
*CELL oa21d1_hd
*C2_R1_C1 2.340e-03 7.370e-03 2.340e-03 
*LOADS
*RC clk_r_REG42_S18:D 3.449e-05
*END

*R_NET n708 4.680e-03
*DRIVER U734:Y
*CELL oa21d1_hd
*C2_R1_C1 2.340e-03 7.370e-03 2.340e-03 
*LOADS
*RC clk_r_REG44_S17:D 3.449e-05
*END

*R_NET n709 4.680e-03
*DRIVER U736:Y
*CELL oa21d1_hd
*C2_R1_C1 2.340e-03 7.370e-03 2.340e-03 
*LOADS
*RC clk_r_REG46_S16:D 3.449e-05
*END

*R_NET n710 4.680e-03
*DRIVER U738:Y
*CELL oa21d1_hd
*C2_R1_C1 2.340e-03 7.370e-03 2.340e-03 
*LOADS
*RC clk_r_REG48_S15:D 3.449e-05
*END

*R_NET n711 4.680e-03
*DRIVER U740:Y
*CELL oa21d1_hd
*C2_R1_C1 2.340e-03 7.370e-03 2.340e-03 
*LOADS
*RC clk_r_REG50_S14:D 3.449e-05
*END

*R_NET n712 4.680e-03
*DRIVER U742:Y
*CELL oa21d1_hd
*C2_R1_C1 2.340e-03 7.370e-03 2.340e-03 
*LOADS
*RC clk_r_REG52_S13:D 3.449e-05
*END

*R_NET n713 4.680e-03
*DRIVER U744:Y
*CELL oa21d1_hd
*C2_R1_C1 2.340e-03 7.370e-03 2.340e-03 
*LOADS
*RC clk_r_REG54_S12:D 3.449e-05
*END

*R_NET n714 4.680e-03
*DRIVER U746:Y
*CELL oa21d1_hd
*C2_R1_C1 2.340e-03 7.370e-03 2.340e-03 
*LOADS
*RC clk_r_REG56_S11:D 3.449e-05
*END

*R_NET n715 4.680e-03
*DRIVER U748:Y
*CELL oa21d1_hd
*C2_R1_C1 2.340e-03 7.370e-03 2.340e-03 
*LOADS
*RC clk_r_REG58_S10:D 3.449e-05
*END

*R_NET n716 4.680e-03
*DRIVER U750:Y
*CELL oa21d1_hd
*C2_R1_C1 2.340e-03 7.370e-03 2.340e-03 
*LOADS
*RC clk_r_REG60_S9:D 3.449e-05
*END

*R_NET n717 4.680e-03
*DRIVER U752:Y
*CELL oa21d1_hd
*C2_R1_C1 2.340e-03 7.370e-03 2.340e-03 
*LOADS
*RC clk_r_REG62_S8:D 3.449e-05
*END

*R_NET n718 4.680e-03
*DRIVER U754:Y
*CELL oa21d1_hd
*C2_R1_C1 2.340e-03 7.370e-03 2.340e-03 
*LOADS
*RC clk_r_REG64_S7:D 3.449e-05
*END

*R_NET n719 4.680e-03
*DRIVER U756:Y
*CELL oa21d1_hd
*C2_R1_C1 2.340e-03 7.370e-03 2.340e-03 
*LOADS
*RC clk_r_REG66_S6:D 3.449e-05
*END

*R_NET n720 4.680e-03
*DRIVER U758:Y
*CELL oa21d1_hd
*C2_R1_C1 2.340e-03 7.370e-03 2.340e-03 
*LOADS
*RC clk_r_REG92_S5:D 3.449e-05
*END

*R_NET n721 4.680e-03
*DRIVER U760:Y
*CELL oa21d1_hd
*C2_R1_C1 2.340e-03 7.370e-03 2.340e-03 
*LOADS
*RC clk_r_REG90_S5:D 3.449e-05
*END

*R_NET n722 4.680e-03
*DRIVER U762:Y
*CELL oa21d1_hd
*C2_R1_C1 2.340e-03 7.370e-03 2.340e-03 
*LOADS
*RC clk_r_REG88_S6:D 3.449e-05
*END

*R_NET n723 4.680e-03
*DRIVER U764:Y
*CELL oa21d1_hd
*C2_R1_C1 2.340e-03 7.370e-03 2.340e-03 
*LOADS
*RC clk_r_REG86_S7:D 3.449e-05
*END

*R_NET n724 4.680e-03
*DRIVER U766:Y
*CELL oa21d1_hd
*C2_R1_C1 2.340e-03 7.370e-03 2.340e-03 
*LOADS
*RC clk_r_REG84_S8:D 3.449e-05
*END

*R_NET n725 4.680e-03
*DRIVER U768:Y
*CELL oa21d1_hd
*C2_R1_C1 2.340e-03 7.370e-03 2.340e-03 
*LOADS
*RC clk_r_REG82_S9:D 3.449e-05
*END

*R_NET n726 4.680e-03
*DRIVER U770:Y
*CELL oa21d1_hd
*C2_R1_C1 2.340e-03 7.370e-03 2.340e-03 
*LOADS
*RC clk_r_REG80_S10:D 3.449e-05
*END

*R_NET n727 4.680e-03
*DRIVER U772:Y
*CELL oa21d1_hd
*C2_R1_C1 2.340e-03 7.370e-03 2.340e-03 
*LOADS
*RC clk_r_REG78_S11:D 3.449e-05
*END

*R_NET i_AB_STB 1.392e-02
*DRIVER i_AB_STB
*CELL fd4qd1_hd
*C2_R1_C1 6.960e-03 1.157e-02 6.960e-03 
*LOADS
*RC U489:A 1.611e-04
*END

*R_NET i_Z_ACK 1.392e-02
*DRIVER i_Z_ACK
*CELL fd4qd1_hd
*C2_R1_C1 6.960e-03 1.157e-02 6.960e-03 
*LOADS
*RC U329:A 1.611e-04
*END

*R_NET i_CLK 3.117e-02
*DRIVER i_CLK
*CELL NULL
*C2_R1_C1 1.558e-02 0.000e+00 1.558e-02 
*LOADS
*RC clk_gate_clk_r_REG247_S1/latch:CK 0.000e+00
*RC clk_gate_clk_r_REG22_S21_0/latch:CK 0.000e+00
*RC clk_gate_clk_r_REG21_S22_0/latch:CK 0.000e+00
*RC clk_gate_clk_r_REG110_S3_0/latch:CK 0.000e+00
*RC clk_gate_clk_r_REG123_S2_0/latch:CK 0.000e+00
*RC clk_gate_clk_r_REG142_S5_0/latch:CK 0.000e+00
*RC clk_gate_clk_r_REG75_S11_0/latch:CK 0.000e+00
*RC clk_gate_clk_r_REG182_S5_0/latch:CK 0.000e+00
*RC clk_gate_clk_r_REG212_S5/latch:CK 0.000e+00
*RC clk_gate_clk_r_REG213_S5/latch:CK 0.000e+00
*RC clk_gate_clk_r_REG74_S10_0/latch:CK 0.000e+00
*RC clk_r_REG214_S5:CK 0.000e+00
*RC clk_r_REG278_S1:CK 0.000e+00
*RC clk_r_REG279_S1:CK 0.000e+00
*RC clk_r_REG124_S3:CK 0.000e+00
*RC clk_r_REG136_S4:CK 0.000e+00
*RC clk_r_REG135_S4:CK 0.000e+00
*RC clk_r_REG125_S3:CK 0.000e+00
*END

*R_NET n695 9.570e-03
*DRIVER U489:Y
*CELL clknd2d1_hd
*C2_R1_C1 4.785e-03 9.100e-03 4.785e-03 
*LOADS
*RC U21:B 8.709e-05
*RC U72:A 8.709e-05
*END

*R_NET n728 9.030e-03
*DRIVER U329:Y
*CELL clknd2d1_hd
*C2_R1_C1 4.515e-03 9.100e-03 4.515e-03 
*LOADS
*RC U74:A 8.217e-05
*RC U828:A 8.217e-05
*END

*R_NET i_B\[31\] 1.901e-02
*DRIVER i_B\[31\]
*CELL fd4qd1_hd
*C2_R1_C1 9.505e-03 1.366e-02 9.505e-03 
*LOADS
*RC clk_r_REG245_S1:D 2.597e-04
*END

*R_NET guard 4.500e-03
*DRIVER U612:Y
*CELL scg4d1_hd
*C2_R1_C1 2.250e-03 7.370e-03 2.250e-03 
*LOADS
*RC clk_r_REG75_S11:D 3.316e-05
*END

*R_NET round_bit 4.500e-03
*DRIVER U611:Y
*CELL scg5d1_hd
*C2_R1_C1 2.250e-03 7.370e-03 2.250e-03 
*LOADS
*RC clk_r_REG76_S12:D 3.316e-05
*END

*R_NET sticky 4.500e-03
*DRIVER U610:Y
*CELL scg5d1_hd
*C2_R1_C1 2.250e-03 7.370e-03 2.250e-03 
*LOADS
*RC clk_r_REG77_S13:D 3.316e-05
*END

*R_NET z_s 4.680e-03
*DRIVER U386:YN
*CELL mx2id1_hd
*C2_R1_C1 2.340e-03 7.370e-03 2.340e-03 
*LOADS
*RC clk_r_REG114_S3:D 3.449e-05
*END

*R_NET N47 1.547e-02
*DRIVER U837:Y
*CELL nr2d1_hd
*C2_R1_C1 7.735e-03 9.460e-03 7.735e-03 
*LOADS
*RC U21:AN 1.463e-04
*RC U73:AN 1.463e-04
*RC U799:C 1.463e-04
*END

*R_NET N87 1.532e-02
*DRIVER U41:Y
*CELL nr3d1_hd
*C2_R1_C1 7.660e-03 9.460e-03 7.660e-03 
*LOADS
*RC clk_gate_clk_r_REG21_S22_0/latch:EN 1.449e-04
*RC U75:AN 1.449e-04
*RC U802:C 1.449e-04
*END

*R_NET N220 1.409e-02
*DRIVER gte_x_3/U11:Y
*CELL oa21d2_hd
*C2_R1_C1 7.045e-03 9.100e-03 7.045e-03 
*LOADS
*RC U9:A 1.282e-04
*RC U302:A 1.282e-04
*END

*R_NET N408 5.900e-03
*DRIVER add_x_6/U28:Y
*CELL ivd1_hd
*C2_R1_C1 2.950e-03 7.370e-03 2.950e-03 
*LOADS
*RC U682:D 4.348e-05
*END

*R_NET N409 5.900e-03
*DRIVER add_x_6/U23:S
*CELL had1_hd
*C2_R1_C1 2.950e-03 7.370e-03 2.950e-03 
*LOADS
*RC U680:D 4.348e-05
*END

*R_NET N410 4.740e-03
*DRIVER add_x_6/U22:S
*CELL had1_hd
*C2_R1_C1 2.370e-03 7.370e-03 2.370e-03 
*LOADS
*RC U677:D 3.493e-05
*END

*R_NET N411 5.800e-03
*DRIVER add_x_6/U21:S
*CELL had1_hd
*C2_R1_C1 2.900e-03 7.370e-03 2.900e-03 
*LOADS
*RC U674:B 4.275e-05
*END

*R_NET N412 5.800e-03
*DRIVER add_x_6/U20:S
*CELL had1_hd
*C2_R1_C1 2.900e-03 7.370e-03 2.900e-03 
*LOADS
*RC U671:B 4.275e-05
*END

*R_NET N413 5.800e-03
*DRIVER add_x_6/U19:S
*CELL had1_hd
*C2_R1_C1 2.900e-03 7.370e-03 2.900e-03 
*LOADS
*RC U668:B 4.275e-05
*END

*R_NET N414 5.800e-03
*DRIVER add_x_6/U18:S
*CELL had1_hd
*C2_R1_C1 2.900e-03 7.370e-03 2.900e-03 
*LOADS
*RC U665:B 4.275e-05
*END

*R_NET N415 5.800e-03
*DRIVER add_x_6/U17:S
*CELL had1_hd
*C2_R1_C1 2.900e-03 7.370e-03 2.900e-03 
*LOADS
*RC U662:B 4.275e-05
*END

*R_NET N416 5.800e-03
*DRIVER add_x_6/U16:S
*CELL had1_hd
*C2_R1_C1 2.900e-03 7.370e-03 2.900e-03 
*LOADS
*RC U659:B 4.275e-05
*END

*R_NET N417 5.800e-03
*DRIVER add_x_6/U15:S
*CELL had1_hd
*C2_R1_C1 2.900e-03 7.370e-03 2.900e-03 
*LOADS
*RC U656:B 4.275e-05
*END

*R_NET N418 5.800e-03
*DRIVER add_x_6/U14:S
*CELL had1_hd
*C2_R1_C1 2.900e-03 7.370e-03 2.900e-03 
*LOADS
*RC U653:B 4.275e-05
*END

*R_NET N419 5.800e-03
*DRIVER add_x_6/U13:S
*CELL had1_hd
*C2_R1_C1 2.900e-03 7.370e-03 2.900e-03 
*LOADS
*RC U650:B 4.275e-05
*END

*R_NET N420 5.800e-03
*DRIVER add_x_6/U12:S
*CELL had1_hd
*C2_R1_C1 2.900e-03 7.370e-03 2.900e-03 
*LOADS
*RC U647:B 4.275e-05
*END

*R_NET N421 5.800e-03
*DRIVER add_x_6/U11:S
*CELL had1_hd
*C2_R1_C1 2.900e-03 7.370e-03 2.900e-03 
*LOADS
*RC U644:B 4.275e-05
*END

*R_NET N422 5.800e-03
*DRIVER add_x_6/U10:S
*CELL had1_hd
*C2_R1_C1 2.900e-03 7.370e-03 2.900e-03 
*LOADS
*RC U641:B 4.275e-05
*END

*R_NET N423 5.800e-03
*DRIVER add_x_6/U9:S
*CELL had1_hd
*C2_R1_C1 2.900e-03 7.370e-03 2.900e-03 
*LOADS
*RC U638:B 4.275e-05
*END

*R_NET N424 5.800e-03
*DRIVER add_x_6/U8:S
*CELL had1_hd
*C2_R1_C1 2.900e-03 7.370e-03 2.900e-03 
*LOADS
*RC U635:B 4.275e-05
*END

*R_NET N425 5.800e-03
*DRIVER add_x_6/U7:S
*CELL had1_hd
*C2_R1_C1 2.900e-03 7.370e-03 2.900e-03 
*LOADS
*RC U632:B 4.275e-05
*END

*R_NET N426 5.800e-03
*DRIVER add_x_6/U6:S
*CELL had1_hd
*C2_R1_C1 2.900e-03 7.370e-03 2.900e-03 
*LOADS
*RC U629:B 4.275e-05
*END

*R_NET N427 5.800e-03
*DRIVER add_x_6/U5:S
*CELL had1_hd
*C2_R1_C1 2.900e-03 7.370e-03 2.900e-03 
*LOADS
*RC U626:B 4.275e-05
*END

*R_NET N428 5.800e-03
*DRIVER add_x_6/U4:S
*CELL had1_hd
*C2_R1_C1 2.900e-03 7.370e-03 2.900e-03 
*LOADS
*RC U623:B 4.275e-05
*END

*R_NET N429 5.800e-03
*DRIVER add_x_6/U3:S
*CELL had1_hd
*C2_R1_C1 2.900e-03 7.370e-03 2.900e-03 
*LOADS
*RC U620:B 4.275e-05
*END

*R_NET N430 5.800e-03
*DRIVER add_x_6/U2:S
*CELL had1_hd
*C2_R1_C1 2.900e-03 7.370e-03 2.900e-03 
*LOADS
*RC U617:B 4.275e-05
*END

*R_NET N431 5.900e-03
*DRIVER add_x_6/U27:Y
*CELL xo2d1_hd
*C2_R1_C1 2.950e-03 7.370e-03 2.950e-03 
*LOADS
*RC U615:D 4.348e-05
*END

*R_NET N443 1.077e-02
*DRIVER U589:Y
*CELL ivd1_hd
*C2_R1_C1 5.385e-03 9.100e-03 5.385e-03 
*LOADS
*RC U721:A 9.801e-05
*RC U591:B 9.801e-05
*END

*R_NET N444 5.750e-03
*DRIVER U591:Y
*CELL ao22d1_hd
*C2_R1_C1 2.875e-03 7.370e-03 2.875e-03 
*LOADS
*RC U718:A 4.238e-05
*END

*R_NET N445 5.750e-03
*DRIVER U595:Y
*CELL ao22d1_hd
*C2_R1_C1 2.875e-03 7.370e-03 2.875e-03 
*LOADS
*RC U717:A 4.238e-05
*END

*R_NET N446 5.750e-03
*DRIVER U598:Y
*CELL ao22d1_hd
*C2_R1_C1 2.875e-03 7.370e-03 2.875e-03 
*LOADS
*RC U716:A 4.238e-05
*END

*R_NET N447 5.750e-03
*DRIVER U602:Y
*CELL ao22d1_hd
*C2_R1_C1 2.875e-03 7.370e-03 2.875e-03 
*LOADS
*RC U715:A 4.238e-05
*END

*R_NET N448 5.750e-03
*DRIVER U605:Y
*CELL ao22d1_hd
*C2_R1_C1 2.875e-03 7.370e-03 2.875e-03 
*LOADS
*RC U714:A 4.238e-05
*END

*R_NET N449 5.750e-03
*DRIVER U609:Y
*CELL ao22d1_hd
*C2_R1_C1 2.875e-03 7.370e-03 2.875e-03 
*LOADS
*RC U713:A 4.238e-05
*END

*R_NET N450 5.750e-03
*DRIVER U346:Y
*CELL xo2d1_hd
*C2_R1_C1 2.875e-03 7.370e-03 2.875e-03 
*LOADS
*RC U712:A 4.238e-05
*END

*R_NET N511 1.910e-02
*DRIVER U802:Y
*CELL scg1d1_hd
*C2_R1_C1 9.550e-03 9.460e-03 9.550e-03 
*LOADS
*RC clk_r_REG136_S4:E 1.807e-04
*RC clk_r_REG135_S4:E 1.807e-04
*RC clk_r_REG125_S3:E 1.807e-04
*END

*R_NET N516 1.001e-02
*DRIVER U21:Y
*CELL nr2bd1_hd
*C2_R1_C1 5.005e-03 9.100e-03 5.005e-03 
*LOADS
*RC clk_gate_clk_r_REG247_S1/latch:EN 9.109e-05
*RC U802:E 9.109e-05
*END

*R_NET N543 5.170e-02
*DRIVER U267:Y
*CELL nr2d1_hd
*C2_R1_C1 2.585e-02 2.090e-02 2.585e-02 
*LOADS
*RC gte_x_3/U202:A 1.081e-03
*RC clk_r_REG209_S5:D 1.081e-03
*RC R_0_clk_r_REG208_S5:D 1.081e-03
*RC U727:A 1.081e-03
*RC U726:D 1.081e-03
*RC U719:A 1.081e-03
*RC U484:A 1.081e-03
*RC U312:A 1.081e-03
*RC U295:A 1.081e-03
*END

*R_NET N545 6.030e-03
*DRIVER U786:Y
*CELL scg14d1_hd
*C2_R1_C1 3.015e-03 7.370e-03 3.015e-03 
*LOADS
*RC clk_gate_clk_r_REG213_S5/latch:EN 4.444e-05
*END

*R_NET N573 6.030e-03
*DRIVER U780:Y
*CELL oa21d1_hd
*C2_R1_C1 3.015e-03 7.370e-03 3.015e-03 
*LOADS
*RC clk_gate_clk_r_REG212_S5/latch:EN 4.444e-05
*END

*R_NET N574 6.029e-02
*DRIVER U436:Y
*CELL oa21d2_hd
*C2_R1_C1 3.015e-02 2.090e-02 3.015e-02 
*LOADS
*RC clk_r_REG180_S5:E 1.260e-03
*RC clk_r_REG179_S5:E 1.260e-03
*RC clk_r_REG178_S5:E 1.260e-03
*RC clk_r_REG177_S5:E 1.260e-03
*RC clk_r_REG176_S5:E 1.260e-03
*RC clk_r_REG175_S5:E 1.260e-03
*RC clk_r_REG174_S5:E 1.260e-03
*RC clk_r_REG138_S2:E 1.260e-03
*RC clk_r_REG137_S5:E 1.260e-03
*END

*R_NET N585 4.431e-02
*DRIVER U49:Y
*CELL oa21d1_hd
*C2_R1_C1 2.216e-02 1.715e-02 2.216e-02 
*LOADS
*RC clk_gate_clk_r_REG182_S5_0/latch:EN 7.599e-04
*RC clk_r_REG187_S5:E 7.599e-04
*RC clk_r_REG186_S5:E 7.599e-04
*RC clk_r_REG181_S5:E 7.599e-04
*RC clk_r_REG141_S6:E 7.599e-04
*RC clk_r_REG140_S6:E 7.599e-04
*RC clk_r_REG139_S5:E 7.599e-04
*END

*R_NET N596 1.007e-02
*DRIVER U40:Y
*CELL oa21d1_hd
*C2_R1_C1 5.035e-03 9.100e-03 5.035e-03 
*LOADS
*RC clk_gate_clk_r_REG22_S21_0/latch:EN 9.164e-05
*RC U792:AN 9.164e-05
*END

*R_NET N629 6.523e-02
*DRIVER U438:Y
*CELL oa211d2_hd
*C2_R1_C1 3.262e-02 2.115e-02 3.262e-02 
*LOADS
*RC clk_r_REG128_S4:E 1.380e-03
*RC clk_r_REG127_S4:E 1.380e-03
*RC clk_r_REG126_S4:E 1.380e-03
*RC clk_r_REG129_S4:E 1.380e-03
*RC clk_r_REG130_S4:E 1.380e-03
*RC clk_r_REG131_S4:E 1.380e-03
*RC clk_r_REG132_S4:E 1.380e-03
*RC clk_r_REG133_S4:E 1.380e-03
*RC clk_r_REG134_S4:E 1.380e-03
*RC clk_r_REG124_S3:E 1.380e-03
*END

*R_NET N664 1.885e-02
*DRIVER U52:Y
*CELL nd2bd1_hd
*C2_R1_C1 9.425e-03 9.460e-03 9.425e-03 
*LOADS
*RC clk_gate_clk_r_REG75_S11_0/latch:EN 1.783e-04
*RC clk_r_REG74_S10:E 1.783e-04
*RC clk_r_REG19_S20:E 1.783e-04
*END

*R_NET N667 1.764e-02
*DRIVER U613:Y
*CELL oa211d1_hd
*C2_R1_C1 8.820e-03 9.460e-03 8.820e-03 
*LOADS
*RC U52:AN 1.669e-04
*RC clk_r_REG76_S12:E 1.669e-04
*RC clk_r_REG75_S11:E 1.669e-04
*END

*R_NET N668 6.580e-03
*DRIVER U327:Y
*CELL clknd2d1_hd
*C2_R1_C1 3.290e-03 7.370e-03 3.290e-03 
*LOADS
*RC clk_r_REG77_S13:E 4.849e-05
*END

*R_NET C85_DATA2_0 4.680e-03
*DRIVER DP_OP_143_130_3257/U15:Y
*CELL ivd1_hd
*C2_R1_C1 2.340e-03 7.370e-03 2.340e-03 
*LOADS
*RC U315:C 3.449e-05
*END

*R_NET C85_DATA2_1 4.680e-03
*DRIVER DP_OP_143_130_3257/U10:S
*CELL fad1_hd
*C2_R1_C1 2.340e-03 7.370e-03 2.340e-03 
*LOADS
*RC U316:C 3.449e-05
*END

*R_NET C85_DATA2_2 4.680e-03
*DRIVER DP_OP_143_130_3257/U9:S
*CELL fad1_hd
*C2_R1_C1 2.340e-03 7.370e-03 2.340e-03 
*LOADS
*RC U317:C 3.449e-05
*END

*R_NET C85_DATA2_3 4.680e-03
*DRIVER DP_OP_143_130_3257/U8:S
*CELL fad1_hd
*C2_R1_C1 2.340e-03 7.370e-03 2.340e-03 
*LOADS
*RC U318:C 3.449e-05
*END

*R_NET C85_DATA2_4 4.680e-03
*DRIVER DP_OP_143_130_3257/U7:S
*CELL fad1_hd
*C2_R1_C1 2.340e-03 7.370e-03 2.340e-03 
*LOADS
*RC U319:C 3.449e-05
*END

*R_NET C85_DATA2_5 4.680e-03
*DRIVER DP_OP_143_130_3257/U6:S
*CELL fad1_hd
*C2_R1_C1 2.340e-03 7.370e-03 2.340e-03 
*LOADS
*RC U320:C 3.449e-05
*END

*R_NET C85_DATA2_6 4.680e-03
*DRIVER DP_OP_143_130_3257/U5:S
*CELL fad1_hd
*C2_R1_C1 2.340e-03 7.370e-03 2.340e-03 
*LOADS
*RC U348:C 3.449e-05
*END

*R_NET C85_DATA2_7 4.680e-03
*DRIVER DP_OP_143_130_3257/U4:S
*CELL fad1_hd
*C2_R1_C1 2.340e-03 7.370e-03 2.340e-03 
*LOADS
*RC U349:C 3.449e-05
*END

*R_NET C85_DATA2_8 4.680e-03
*DRIVER DP_OP_143_130_3257/U3:S
*CELL fad1_hd
*C2_R1_C1 2.340e-03 7.370e-03 2.340e-03 
*LOADS
*RC U350:C 3.449e-05
*END

*R_NET C85_DATA2_9 4.680e-03
*DRIVER DP_OP_143_130_3257/U14:Y
*CELL xo3d1_hd
*C2_R1_C1 2.340e-03 7.370e-03 2.340e-03 
*LOADS
*RC U351:C 3.449e-05
*END

*R_NET C82_DATA2_0 1.085e-02
*DRIVER U568:Y
*CELL ivd1_hd
*C2_R1_C1 5.425e-03 9.100e-03 5.425e-03 
*LOADS
*RC U721:C 9.874e-05
*RC U570:B 9.874e-05
*END

*R_NET C82_DATA2_1 5.830e-03
*DRIVER U570:Y
*CELL ao22d1_hd
*C2_R1_C1 2.915e-03 7.370e-03 2.915e-03 
*LOADS
*RC U718:C 4.297e-05
*END

*R_NET C82_DATA2_2 5.830e-03
*DRIVER U574:Y
*CELL ao22d1_hd
*C2_R1_C1 2.915e-03 7.370e-03 2.915e-03 
*LOADS
*RC U717:C 4.297e-05
*END

*R_NET C82_DATA2_3 5.830e-03
*DRIVER U577:Y
*CELL ao22d1_hd
*C2_R1_C1 2.915e-03 7.370e-03 2.915e-03 
*LOADS
*RC U716:C 4.297e-05
*END

*R_NET C82_DATA2_4 5.830e-03
*DRIVER U581:Y
*CELL ao22d1_hd
*C2_R1_C1 2.915e-03 7.370e-03 2.915e-03 
*LOADS
*RC U715:C 4.297e-05
*END

*R_NET C82_DATA2_5 5.830e-03
*DRIVER U584:Y
*CELL ao22d1_hd
*C2_R1_C1 2.915e-03 7.370e-03 2.915e-03 
*LOADS
*RC U714:C 4.297e-05
*END

*R_NET C82_DATA2_6 5.830e-03
*DRIVER U588:Y
*CELL ao22d1_hd
*C2_R1_C1 2.915e-03 7.370e-03 2.915e-03 
*LOADS
*RC U713:C 4.297e-05
*END

*R_NET C82_DATA2_7 5.830e-03
*DRIVER U347:Y
*CELL xo2d1_hd
*C2_R1_C1 2.915e-03 7.370e-03 2.915e-03 
*LOADS
*RC U712:C 4.297e-05
*END

*R_NET n6 1.399e-02
*DRIVER U26:Y
*CELL ivd1_hd
*C2_R1_C1 6.995e-03 7.370e-03 6.995e-03 
*LOADS
*RC U11:A 1.031e-04
*END

*R_NET n7 1.399e-02
*DRIVER U27:Y
*CELL ivd1_hd
*C2_R1_C1 6.995e-03 7.370e-03 6.995e-03 
*LOADS
*RC U14:A 1.031e-04
*END

*R_NET n8 1.399e-02
*DRIVER U28:Y
*CELL ivd1_hd
*C2_R1_C1 6.995e-03 7.370e-03 6.995e-03 
*LOADS
*RC U15:A 1.031e-04
*END

*R_NET n9 1.399e-02
*DRIVER U29:Y
*CELL ivd1_hd
*C2_R1_C1 6.995e-03 7.370e-03 6.995e-03 
*LOADS
*RC U16:A 1.031e-04
*END

*R_NET n10 1.399e-02
*DRIVER U30:Y
*CELL ivd1_hd
*C2_R1_C1 6.995e-03 7.370e-03 6.995e-03 
*LOADS
*RC U13:A 1.031e-04
*END

*R_NET n11 1.399e-02
*DRIVER U31:Y
*CELL ivd1_hd
*C2_R1_C1 6.995e-03 7.370e-03 6.995e-03 
*LOADS
*RC U12:A 1.031e-04
*END

*R_NET C1_DATA1_8 1.021e-02
*DRIVER DP_OP_128_128_163/U13:Y
*CELL nr2d1_hd
*C2_R1_C1 5.105e-03 9.100e-03 5.105e-03 
*LOADS
*RC U80:B 9.291e-05
*RC U22:B 9.291e-05
*END

*R_NET C1_DATA1_7 4.670e-03
*DRIVER DP_OP_128_128_163/U14:Y
*CELL ao22d1_hd
*C2_R1_C1 2.335e-03 7.370e-03 2.335e-03 
*LOADS
*RC U313:D 3.442e-05
*END

*R_NET C1_DATA1_6 5.900e-03
*DRIVER DP_OP_128_128_163/U4:S
*CELL had1_hd
*C2_R1_C1 2.950e-03 7.370e-03 2.950e-03 
*LOADS
*RC U435:D 4.348e-05
*END

*R_NET C1_DATA1_5 5.900e-03
*DRIVER DP_OP_128_128_163/U5:S
*CELL had1_hd
*C2_R1_C1 2.950e-03 7.370e-03 2.950e-03 
*LOADS
*RC U434:D 4.348e-05
*END

*R_NET C1_DATA1_4 5.900e-03
*DRIVER DP_OP_128_128_163/U6:S
*CELL had1_hd
*C2_R1_C1 2.950e-03 7.370e-03 2.950e-03 
*LOADS
*RC U433:D 4.348e-05
*END

*R_NET C1_DATA1_3 5.900e-03
*DRIVER DP_OP_128_128_163/U7:S
*CELL had1_hd
*C2_R1_C1 2.950e-03 7.370e-03 2.950e-03 
*LOADS
*RC U24:D 4.348e-05
*END

*R_NET C1_DATA1_2 5.900e-03
*DRIVER DP_OP_128_128_163/U8:S
*CELL had1_hd
*C2_R1_C1 2.950e-03 7.370e-03 2.950e-03 
*LOADS
*RC U25:D 4.348e-05
*END

*R_NET C1_DATA1_1 5.900e-03
*DRIVER DP_OP_128_128_163/U9:S
*CELL had1_hd
*C2_R1_C1 2.950e-03 7.370e-03 2.950e-03 
*LOADS
*RC U32:D 4.348e-05
*END

*R_NET C1_DATA1_0 4.670e-03
*DRIVER DP_OP_128_128_163/U17:Y
*CELL ivd1_hd
*C2_R1_C1 2.335e-03 7.370e-03 2.335e-03 
*LOADS
*RC U408:D 3.442e-05
*END

*R_NET C1_DATA2_9 5.830e-03
*DRIVER DP_OP_129_129_1948/U13:Y
*CELL xo2d1_hd
*C2_R1_C1 2.915e-03 7.370e-03 2.915e-03 
*LOADS
*RC U80:C 4.297e-05
*END

*R_NET C1_DATA2_8 4.510e-03
*DRIVER DP_OP_129_129_1948/U2:S
*CELL had1_hd
*C2_R1_C1 2.255e-03 7.370e-03 2.255e-03 
*LOADS
*RC U779:B 3.324e-05
*END

*R_NET C1_DATA2_7 4.780e-03
*DRIVER DP_OP_129_129_1948/U3:S
*CELL had1_hd
*C2_R1_C1 2.390e-03 7.370e-03 2.390e-03 
*LOADS
*RC U313:B 3.523e-05
*END

*R_NET C1_DATA2_6 5.800e-03
*DRIVER DP_OP_129_129_1948/U4:S
*CELL had1_hd
*C2_R1_C1 2.900e-03 7.370e-03 2.900e-03 
*LOADS
*RC U435:B 4.275e-05
*END

*R_NET C1_DATA2_5 5.800e-03
*DRIVER DP_OP_129_129_1948/U5:S
*CELL had1_hd
*C2_R1_C1 2.900e-03 7.370e-03 2.900e-03 
*LOADS
*RC U434:B 4.275e-05
*END

*R_NET C1_DATA2_4 5.800e-03
*DRIVER DP_OP_129_129_1948/U6:S
*CELL had1_hd
*C2_R1_C1 2.900e-03 7.370e-03 2.900e-03 
*LOADS
*RC U433:B 4.275e-05
*END

*R_NET C1_DATA2_3 5.800e-03
*DRIVER DP_OP_129_129_1948/U7:S
*CELL had1_hd
*C2_R1_C1 2.900e-03 7.370e-03 2.900e-03 
*LOADS
*RC U24:B 4.275e-05
*END

*R_NET C1_DATA2_2 5.800e-03
*DRIVER DP_OP_129_129_1948/U8:S
*CELL had1_hd
*C2_R1_C1 2.900e-03 7.370e-03 2.900e-03 
*LOADS
*RC U25:B 4.275e-05
*END

*R_NET C1_DATA2_1 5.800e-03
*DRIVER DP_OP_129_129_1948/U9:S
*CELL had1_hd
*C2_R1_C1 2.900e-03 7.370e-03 2.900e-03 
*LOADS
*RC U32:B 4.275e-05
*END

*R_NET C1_DATA2_0 4.780e-03
*DRIVER DP_OP_129_129_1948/U14:Y
*CELL ivd1_hd
*C2_R1_C1 2.390e-03 7.370e-03 2.390e-03 
*LOADS
*RC U408:B 3.523e-05
*END

*R_NET C2_Z_26 8.450e-03
*DRIVER U331:YN
*CELL mx2id1_hd
*C2_R1_C1 4.225e-03 7.370e-03 4.225e-03 
*LOADS
*RC DP_OP_43_133_2142/U8:B 6.228e-05
*END

*R_NET C2_Z_25 1.244e-02
*DRIVER U333:YN
*CELL mx2id1_hd
*C2_R1_C1 6.220e-03 7.370e-03 6.220e-03 
*LOADS
*RC DP_OP_43_133_2142/U77:B 9.168e-05
*END

*R_NET C2_Z_24 1.244e-02
*DRIVER U335:YN
*CELL mx2id1_hd
*C2_R1_C1 6.220e-03 7.370e-03 6.220e-03 
*LOADS
*RC DP_OP_43_133_2142/U14:B 9.168e-05
*END

*R_NET C2_Z_23 1.244e-02
*DRIVER U352:YN
*CELL mx2id1_hd
*C2_R1_C1 6.220e-03 7.370e-03 6.220e-03 
*LOADS
*RC DP_OP_43_133_2142/U3:B 9.168e-05
*END

*R_NET C2_Z_22 1.244e-02
*DRIVER U354:YN
*CELL mx2id1_hd
*C2_R1_C1 6.220e-03 7.370e-03 6.220e-03 
*LOADS
*RC DP_OP_43_133_2142/U6:B 9.168e-05
*END

*R_NET C2_Z_21 1.244e-02
*DRIVER U356:YN
*CELL mx2id1_hd
*C2_R1_C1 6.220e-03 7.370e-03 6.220e-03 
*LOADS
*RC DP_OP_43_133_2142/U15:B 9.168e-05
*END

*R_NET C2_Z_20 1.244e-02
*DRIVER U358:YN
*CELL mx2id1_hd
*C2_R1_C1 6.220e-03 7.370e-03 6.220e-03 
*LOADS
*RC DP_OP_43_133_2142/U18:B 9.168e-05
*END

*R_NET C2_Z_19 1.244e-02
*DRIVER U276:YN
*CELL mx2id1_hd
*C2_R1_C1 6.220e-03 7.370e-03 6.220e-03 
*LOADS
*RC DP_OP_43_133_2142/U72:B 9.168e-05
*END

*R_NET C2_Z_18 8.450e-03
*DRIVER U360:YN
*CELL mx2id1_hd
*C2_R1_C1 4.225e-03 7.370e-03 4.225e-03 
*LOADS
*RC DP_OP_43_133_2142/U2:B 6.228e-05
*END

*R_NET C2_Z_17 1.244e-02
*DRIVER U362:YN
*CELL mx2id1_hd
*C2_R1_C1 6.220e-03 7.370e-03 6.220e-03 
*LOADS
*RC DP_OP_43_133_2142/U65:B 9.168e-05
*END

*R_NET C2_Z_16 8.450e-03
*DRIVER U364:YN
*CELL mx2id1_hd
*C2_R1_C1 4.225e-03 7.370e-03 4.225e-03 
*LOADS
*RC DP_OP_43_133_2142/U9:B 6.228e-05
*END

*R_NET C2_Z_15 5.860e-03
*DRIVER U366:YN
*CELL mx2id1_hd
*C2_R1_C1 2.930e-03 7.370e-03 2.930e-03 
*LOADS
*RC DP_OP_43_133_2142/U22:B 4.319e-05
*END

*R_NET C2_Z_14 1.244e-02
*DRIVER U368:YN
*CELL mx2id1_hd
*C2_R1_C1 6.220e-03 7.370e-03 6.220e-03 
*LOADS
*RC DP_OP_43_133_2142/U70:B 9.168e-05
*END

*R_NET C2_Z_13 8.450e-03
*DRIVER U370:YN
*CELL mx2id1_hd
*C2_R1_C1 4.225e-03 7.370e-03 4.225e-03 
*LOADS
*RC DP_OP_43_133_2142/U10:B 6.228e-05
*END

*R_NET C2_Z_12 5.860e-03
*DRIVER U269:YN
*CELL mx2id1_hd
*C2_R1_C1 2.930e-03 7.370e-03 2.930e-03 
*LOADS
*RC DP_OP_43_133_2142/U21:B 4.319e-05
*END

*R_NET C2_Z_11 8.450e-03
*DRIVER U372:YN
*CELL mx2id1_hd
*C2_R1_C1 4.225e-03 7.370e-03 4.225e-03 
*LOADS
*RC DP_OP_43_133_2142/U11:B 6.228e-05
*END

*R_NET C2_Z_10 1.244e-02
*DRIVER U265:YN
*CELL mx2id1_hd
*C2_R1_C1 6.220e-03 7.370e-03 6.220e-03 
*LOADS
*RC DP_OP_43_133_2142/U110:B 9.168e-05
*END

*R_NET C2_Z_9 1.244e-02
*DRIVER U278:YN
*CELL mx2id1_hd
*C2_R1_C1 6.220e-03 7.370e-03 6.220e-03 
*LOADS
*RC DP_OP_43_133_2142/U19:B 9.168e-05
*END

*R_NET C2_Z_8 1.244e-02
*DRIVER U374:YN
*CELL mx2id1_hd
*C2_R1_C1 6.220e-03 7.370e-03 6.220e-03 
*LOADS
*RC DP_OP_43_133_2142/U20:B 9.168e-05
*END

*R_NET C2_Z_7 8.450e-03
*DRIVER U376:YN
*CELL mx2id1_hd
*C2_R1_C1 4.225e-03 7.370e-03 4.225e-03 
*LOADS
*RC DP_OP_43_133_2142/U13:B 6.228e-05
*END

*R_NET C2_Z_6 1.244e-02
*DRIVER U378:YN
*CELL mx2id1_hd
*C2_R1_C1 6.220e-03 7.370e-03 6.220e-03 
*LOADS
*RC DP_OP_43_133_2142/U4:B 9.168e-05
*END

*R_NET C2_Z_5 1.244e-02
*DRIVER U266:YN
*CELL mx2id1_hd
*C2_R1_C1 6.220e-03 7.370e-03 6.220e-03 
*LOADS
*RC DP_OP_43_133_2142/U7:B 9.168e-05
*END

*R_NET C2_Z_4 8.450e-03
*DRIVER U380:YN
*CELL mx2id1_hd
*C2_R1_C1 4.225e-03 7.370e-03 4.225e-03 
*LOADS
*RC DP_OP_43_133_2142/U108:B 6.228e-05