*SPEF "IEEE 1481-1999"
*DESIGN "float_adder"
*DATE "Wed May 13 17:28:47 2020"
*VENDOR "SYNOPSYS INC"
*PROGRAM "Synopsys Design Compiler cmos"
*VERSION "F-2011.09-SP5-3"
*DESIGN_FLOW "SYNTHESIS"
*DIVIDER /
*DELIMITER :
*BUS_DELIMITER []
*T_UNIT 1.0 NS
*C_UNIT 1.0 PF
*R_UNIT 1.0 KOHM
*L_UNIT 1.0 HENRY

*PORTS

i_A\[31\] I *L 0.000e+00 *S 0.000e+00 0.000e+00 
i_A\[30\] I *L 0.000e+00 *S 0.000e+00 0.000e+00 
i_A\[29\] I *L 0.000e+00 *S 0.000e+00 0.000e+00 
i_A\[28\] I *L 0.000e+00 *S 0.000e+00 0.000e+00 
i_A\[27\] I *L 0.000e+00 *S 0.000e+00 0.000e+00 
i_A\[26\] I *L 0.000e+00 *S 0.000e+00 0.000e+00 
i_A\[25\] I *L 0.000e+00 *S 0.000e+00 0.000e+00 
i_A\[24\] I *L 0.000e+00 *S 0.000e+00 0.000e+00 
i_A\[23\] I *L 0.000e+00 *S 0.000e+00 0.000e+00 
i_A\[22\] I *L 0.000e+00 *S 0.000e+00 0.000e+00 
i_A\[21\] I *L 0.000e+00 *S 0.000e+00 0.000e+00 
i_A\[20\] I *L 0.000e+00 *S 0.000e+00 0.000e+00 
i_A\[19\] I *L 0.000e+00 *S 0.000e+00 0.000e+00 
i_A\[18\] I *L 0.000e+00 *S 0.000e+00 0.000e+00 
i_A\[17\] I *L 0.000e+00 *S 0.000e+00 0.000e+00 
i_A\[16\] I *L 0.000e+00 *S 0.000e+00 0.000e+00 
i_A\[15\] I *L 0.000e+00 *S 0.000e+00 0.000e+00 
i_A\[14\] I *L 0.000e+00 *S 0.000e+00 0.000e+00 
i_A\[13\] I *L 0.000e+00 *S 0.000e+00 0.000e+00 
i_A\[12\] I *L 0.000e+00 *S 0.000e+00 0.000e+00 
i_A\[11\] I *L 0.000e+00 *S 0.000e+00 0.000e+00 
i_A\[10\] I *L 0.000e+00 *S 0.000e+00 0.000e+00 
i_A\[9\] I *L 0.000e+00 *S 0.000e+00 0.000e+00 
i_A\[8\] I *L 0.000e+00 *S 0.000e+00 0.000e+00 
i_A\[7\] I *L 0.000e+00 *S 0.000e+00 0.000e+00 
i_A\[6\] I *L 0.000e+00 *S 0.000e+00 0.000e+00 
i_A\[5\] I *L 0.000e+00 *S 0.000e+00 0.000e+00 
i_A\[4\] I *L 0.000e+00 *S 0.000e+00 0.000e+00 
i_A\[3\] I *L 0.000e+00 *S 0.000e+00 0.000e+00 
i_A\[2\] I *L 0.000e+00 *S 0.000e+00 0.000e+00 
i_A\[1\] I *L 0.000e+00 *S 0.000e+00 0.000e+00 
i_A\[0\] I *L 0.000e+00 *S 0.000e+00 0.000e+00 
i_B\[31\] I *L 0.000e+00 *S 0.000e+00 0.000e+00 
i_B\[30\] I *L 0.000e+00 *S 0.000e+00 0.000e+00 
i_B\[29\] I *L 0.000e+00 *S 0.000e+00 0.000e+00 
i_B\[28\] I *L 0.000e+00 *S 0.000e+00 0.000e+00 
i_B\[27\] I *L 0.000e+00 *S 0.000e+00 0.000e+00 
i_B\[26\] I *L 0.000e+00 *S 0.000e+00 0.000e+00 
i_B\[25\] I *L 0.000e+00 *S 0.000e+00 0.000e+00 
i_B\[24\] I *L 0.000e+00 *S 0.000e+00 0.000e+00 
i_B\[23\] I *L 0.000e+00 *S 0.000e+00 0.000e+00 
i_B\[22\] I *L 0.000e+00 *S 0.000e+00 0.000e+00 
i_B\[21\] I *L 0.000e+00 *S 0.000e+00 0.000e+00 
i_B\[20\] I *L 0.000e+00 *S 0.000e+00 0.000e+00 
i_B\[19\] I *L 0.000e+00 *S 0.000e+00 0.000e+00 
i_B\[18\] I *L 0.000e+00 *S 0.000e+00 0.000e+00 
i_B\[17\] I *L 0.000e+00 *S 0.000e+00 0.000e+00 
i_B\[16\] I *L 0.000e+00 *S 0.000e+00 0.000e+00 
i_B\[15\] I *L 0.000e+00 *S 0.000e+00 0.000e+00 
i_B\[14\] I *L 0.000e+00 *S 0.000e+00 0.000e+00 
i_B\[13\] I *L 0.000e+00 *S 0.000e+00 0.000e+00 
i_B\[12\] I *L 0.000e+00 *S 0.000e+00 0.000e+00 
i_B\[11\] I *L 0.000e+00 *S 0.000e+00 0.000e+00 
i_B\[10\] I *L 0.000e+00 *S 0.000e+00 0.000e+00 
i_B\[9\] I *L 0.000e+00 *S 0.000e+00 0.000e+00 
i_B\[8\] I *L 0.000e+00 *S 0.000e+00 0.000e+00 
i_B\[7\] I *L 0.000e+00 *S 0.000e+00 0.000e+00 
i_B\[6\] I *L 0.000e+00 *S 0.000e+00 0.000e+00 
i_B\[5\] I *L 0.000e+00 *S 0.000e+00 0.000e+00 
i_B\[4\] I *L 0.000e+00 *S 0.000e+00 0.000e+00 
i_B\[3\] I *L 0.000e+00 *S 0.000e+00 0.000e+00 
i_B\[2\] I *L 0.000e+00 *S 0.000e+00 0.000e+00 
i_B\[1\] I *L 0.000e+00 *S 0.000e+00 0.000e+00 
i_B\[0\] I *L 0.000e+00 *S 0.000e+00 0.000e+00 
i_AB_STB I *L 0.000e+00 *S 0.000e+00 0.000e+00 
o_AB_ACK O *L 1.035e-02 *S 2.162e-01 1.593e-01 
o_Z\[31\] O *L 1.035e-02 *S 1.246e-01 1.083e-01 
o_Z\[30\] O *L 1.035e-02 *S 1.246e-01 1.083e-01 
o_Z\[29\] O *L 1.035e-02 *S 1.246e-01 1.083e-01 
o_Z\[28\] O *L 1.035e-02 *S 1.246e-01 1.083e-01 
o_Z\[27\] O *L 1.035e-02 *S 1.246e-01 1.083e-01 
o_Z\[26\] O *L 1.035e-02 *S 1.246e-01 1.083e-01 
o_Z\[25\] O *L 1.035e-02 *S 1.246e-01 1.083e-01 
o_Z\[24\] O *L 1.035e-02 *S 1.246e-01 1.083e-01 
o_Z\[23\] O *L 1.035e-02 *S 1.246e-01 1.083e-01 
o_Z\[22\] O *L 1.035e-02 *S 1.246e-01 1.083e-01 
o_Z\[21\] O *L 1.035e-02 *S 1.246e-01 1.083e-01 
o_Z\[20\] O *L 1.035e-02 *S 1.246e-01 1.083e-01 
o_Z\[19\] O *L 1.035e-02 *S 1.246e-01 1.083e-01 
o_Z\[18\] O *L 1.035e-02 *S 1.246e-01 1.083e-01 
o_Z\[17\] O *L 1.035e-02 *S 1.246e-01 1.083e-01 
o_Z\[16\] O *L 1.035e-02 *S 1.246e-01 1.083e-01 
o_Z\[15\] O *L 1.035e-02 *S 1.246e-01 1.083e-01 
o_Z\[14\] O *L 1.035e-02 *S 1.246e-01 1.083e-01 
o_Z\[13\] O *L 1.035e-02 *S 1.246e-01 1.083e-01 
o_Z\[12\] O *L 1.035e-02 *S 1.246e-01 1.083e-01 
o_Z\[11\] O *L 1.035e-02 *S 1.246e-01 1.083e-01 
o_Z\[10\] O *L 1.035e-02 *S 1.246e-01 1.083e-01 
o_Z\[9\] O *L 1.035e-02 *S 1.246e-01 1.083e-01 
o_Z\[8\] O *L 1.035e-02 *S 1.246e-01 1.083e-01 
o_Z\[7\] O *L 1.035e-02 *S 1.246e-01 1.083e-01 
o_Z\[6\] O *L 1.035e-02 *S 1.246e-01 1.083e-01 
o_Z\[5\] O *L 1.035e-02 *S 1.246e-01 1.083e-01 
o_Z\[4\] O *L 1.035e-02 *S 1.246e-01 1.083e-01 
o_Z\[3\] O *L 1.035e-02 *S 1.246e-01 1.083e-01 
o_Z\[2\] O *L 1.035e-02 *S 1.246e-01 1.083e-01 
o_Z\[1\] O *L 1.035e-02 *S 1.246e-01 1.083e-01 
o_Z\[0\] O *L 1.035e-02 *S 1.246e-01 1.083e-01 
o_Z_STB O *L 1.035e-02 *S 2.145e-01 1.582e-01 
i_Z_ACK I *L 0.000e+00 *S 0.000e+00 0.000e+00 
i_CLK I *L 0.000e+00 *S 0.000e+00 0.000e+00 
i_RST I *L 0.000e+00 *S 0.000e+00 0.000e+00 

*R_NET i_AB_STB 5.630e-03
*DRIVER i_AB_STB
*CELL NULL
*C2_R1_C1 2.815e-03 7.370e-03 2.815e-03 
*LOADS
*RC U622:B 4.149e-05
*END

*R_NET i_Z_ACK 4.590e-03
*DRIVER i_Z_ACK
*CELL NULL
*C2_R1_C1 2.295e-03 7.370e-03 2.295e-03 
*LOADS
*RC U955:A 3.383e-05
*END

*R_NET i_CLK 4.346e-02
*DRIVER i_CLK
*CELL NULL
*C2_R1_C1 2.173e-02 2.090e-02 2.173e-02 
*LOADS
*RC clk_gate_clk_r_REG212_S8/latch:CK 9.085e-04
*RC clk_gate_clk_r_REG208_S8/latch:CK 9.085e-04
*RC clk_gate_clk_r_REG97_S7/latch:CK 9.085e-04
*RC clk_gate_clk_r_REG166_S8/latch:CK 9.085e-04
*RC clk_gate_clk_r_REG174_S8/latch:CK 9.085e-04
*RC clk_gate_clk_r_REG144_S3/latch:CK 9.085e-04
*RC clk_gate_clk_r_REG4_S5/latch:CK 9.085e-04
*RC clk_gate_clk_r_REG89_S8/latch:CK 9.085e-04
*RC clk_gate_clk_r_REG0_S1/latch:CK 9.085e-04
*END

*R_NET o_AB_ACK0 4.620e-03
*DRIVER U117:Y
*CELL scg21d1_hd
*C2_R1_C1 2.310e-03 7.370e-03 2.310e-03 
*LOADS
*RC clk_r_REG212_S8:D 3.405e-05
*END

*R_NET o_Z_STB0 4.620e-03
*DRIVER U143:Y
*CELL ao211d1_hd
*C2_R1_C1 2.310e-03 7.370e-03 2.310e-03 
*LOADS
*RC clk_r_REG107_S8:D 3.405e-05
*END

*R_NET i_A\[31\] 4.680e-03
*DRIVER i_A\[31\]
*CELL NULL
*C2_R1_C1 2.340e-03 7.370e-03 2.340e-03 
*LOADS
*RC clk_r_REG0_S1:D 3.449e-05
*END

*R_NET i_B\[31\] 4.680e-03
*DRIVER i_B\[31\]
*CELL NULL
*C2_R1_C1 2.340e-03 7.370e-03 2.340e-03 
*LOADS
*RC clk_r_REG244_S1:D 3.449e-05
*END

*R_NET guard 4.500e-03
*DRIVER U76:Y
*CELL scg4d1_hd
*C2_R1_C1 2.250e-03 7.370e-03 2.250e-03 
*LOADS
*RC clk_r_REG17_S12:D 3.316e-05
*END

*R_NET round_bit 4.620e-03
*DRIVER U1310:Y
*CELL oa211d1_hd
*C2_R1_C1 2.310e-03 7.370e-03 2.310e-03 
*LOADS
*RC clk_r_REG18_S8:D 3.405e-05
*END

*R_NET sticky 4.620e-03
*DRIVER U19:Y
*CELL scg17d1_hd
*C2_R1_C1 2.310e-03 7.370e-03 2.310e-03 
*LOADS
*RC clk_r_REG19_S9:D 3.405e-05
*END

*R_NET z_s 4.680e-03
*DRIVER U872:Y
*CELL ao22d1_hd
*C2_R1_C1 2.340e-03 7.370e-03 2.340e-03 
*LOADS
*RC clk_r_REG2_S3:D 3.449e-05
*END

*R_NET N394 1.738e-02
*DRIVER U616:Y
*CELL nr2d1_hd
*C2_R1_C1 8.690e-03 9.460e-03 8.690e-03 
*LOADS
*RC U1188:B 1.644e-04
*RC U843:B 1.644e-04
*RC U139:B 1.644e-04
*END

*R_NET C91_DATA2_1 5.550e-03
*DRIVER DP_OP_154J1_137_6175_U10:S
*CELL fad1_hd
*C2_R1_C1 2.775e-03 7.370e-03 2.775e-03 
*LOADS
*RC U319:C 4.090e-05
*END

*R_NET C91_DATA2_2 5.550e-03
*DRIVER DP_OP_154J1_137_6175_U9:S
*CELL fad1_hd
*C2_R1_C1 2.775e-03 7.370e-03 2.775e-03 
*LOADS
*RC U317:C 4.090e-05
*END

*R_NET C91_DATA2_3 5.550e-03
*DRIVER DP_OP_154J1_137_6175_U8:S
*CELL fad1_hd
*C2_R1_C1 2.775e-03 7.370e-03 2.775e-03 
*LOADS
*RC U315:C 4.090e-05
*END

*R_NET C91_DATA2_4 5.550e-03
*DRIVER DP_OP_154J1_137_6175_U7:S
*CELL fad1_hd
*C2_R1_C1 2.775e-03 7.370e-03 2.775e-03 
*LOADS
*RC U313:C 4.090e-05
*END

*R_NET C91_DATA2_5 5.550e-03
*DRIVER DP_OP_154J1_137_6175_U6:S
*CELL fad1_hd
*C2_R1_C1 2.775e-03 7.370e-03 2.775e-03 
*LOADS
*RC U311:C 4.090e-05
*END

*R_NET C91_DATA2_6 5.550e-03
*DRIVER DP_OP_154J1_137_6175_U5:S
*CELL fad1_hd
*C2_R1_C1 2.775e-03 7.370e-03 2.775e-03 
*LOADS
*RC U309:C 4.090e-05
*END

*R_NET C91_DATA2_7 5.550e-03
*DRIVER DP_OP_154J1_137_6175_U4:S
*CELL fad1_hd
*C2_R1_C1 2.775e-03 7.370e-03 2.775e-03 
*LOADS
*RC U307:C 4.090e-05
*END

*R_NET C91_DATA2_8 5.550e-03
*DRIVER DP_OP_154J1_137_6175_U3:S
*CELL fad1_hd
*C2_R1_C1 2.775e-03 7.370e-03 2.775e-03 
*LOADS
*RC U321:C 4.090e-05
*END

*R_NET C91_DATA2_9 5.200e-03
*DRIVER DP_OP_154J1_137_6175_U1:Y
*CELL xo2d1_hd
*C2_R1_C1 2.600e-03 7.370e-03 2.600e-03 
*LOADS
*RC U526:A 3.832e-05
*END

*R_NET RSOP_150_C1_CONTROL1 1.567e-01
*DRIVER U47:Y
*CELL ivd3_hd
*C2_R1_C1 7.837e-02 4.489e-02 7.837e-02 
*LOADS
*RC U23:A 7.037e-03
*RC U24:A 7.037e-03
*RC U1419:C 7.037e-03
*RC U1002:C 7.037e-03
*RC U1425:C 7.037e-03
*RC U9:C 7.037e-03
*RC U253:C 7.037e-03
*RC U254:C 7.037e-03
*RC U255:C 7.037e-03
*RC U256:C 7.037e-03
*RC U257:C 7.037e-03
*RC U258:C 7.037e-03
*RC U259:C 7.037e-03
*RC U260:C 7.037e-03
*RC U261:C 7.037e-03
*RC U262:C 7.037e-03
*RC U263:C 7.037e-03
*RC U264:C 7.037e-03
*RC U1393:C 7.037e-03
*RC U1400:C 7.037e-03
*RC U277:C 7.037e-03
*RC U278:C 7.037e-03
*RC U279:C 7.037e-03
*RC U280:C 7.037e-03
*RC U281:C 7.037e-03
*RC U282:C 7.037e-03
*RC U283:C 7.037e-03
*RC U284:C 7.037e-03
*RC U285:C 7.037e-03
*RC U286:C 7.037e-03
*RC U287:C 7.037e-03
*RC U288:C 7.037e-03
*RC U289:C 7.037e-03
*RC U290:C 7.037e-03
*RC U291:C 7.037e-03
*RC U292:C 7.037e-03
*RC U293:C 7.037e-03
*RC U294:C 7.037e-03
*RC clk_r_REG245_S2:E 7.037e-03
*RC clk_r_REG1_S2:E 7.037e-03
*END

*R_NET n1 6.580e-03
*DRIVER U1431:Y
*CELL scg6d1_hd
*C2_R1_C1 3.290e-03 7.370e-03 3.290e-03 
*LOADS
*RC clk_r_REG207_S8:E 4.849e-05
*END

*R_NET n2 1.238e-02
*DRIVER U1430:Y
*CELL oa21d1_hd
*C2_R1_C1 6.190e-03 9.100e-03 6.190e-03 
*LOADS
*RC clk_r_REG210_S8:E 1.127e-04
*RC clk_r_REG208_S8:E 1.127e-04
*END

*R_NET n18 4.993e-02
*DRIVER U614:Y
*CELL ivd1_hd
*C2_R1_C1 2.496e-02 2.066e-02 2.496e-02 
*LOADS
*RC U1291:B 1.032e-03
*RC U1272:B 1.032e-03
*RC U1252:B 1.032e-03
*RC U1232:B 1.032e-03
*RC U1212:B 1.032e-03
*RC U1187:A 1.032e-03
*RC U718:D 1.032e-03
*RC U699:C 1.032e-03
*END

*R_NET n23 1.572e-02
*DRIVER U694:Y
*CELL ivd1_hd
*C2_R1_C1 7.860e-03 9.460e-03 7.860e-03 
*LOADS
*RC U1371:C 1.487e-04
*RC U698:A 1.487e-04
*RC U122:B 1.487e-04
*END

*R_NET n28 3.563e-02
*DRIVER U696:Y
*CELL ivd1_hd
*C2_R1_C1 1.781e-02 1.549e-02 1.781e-02 
*LOADS
*RC U28:B 5.519e-04
*RC U830:C 5.519e-04
*RC U617:A 5.519e-04
*RC U595:A 5.519e-04
*RC U134:A 5.519e-04
*END

*R_NET n29 1.773e-02
*DRIVER U715:Y
*CELL ivd1_hd
*C2_R1_C1 8.865e-03 9.460e-03 8.865e-03 
*LOADS
*RC U830:B 1.677e-04
*RC U707:A 1.677e-04
*RC U119:C 1.677e-04
*END

*R_NET n30 4.198e-02
*DRIVER U695:Y
*CELL ivd1_hd
*C2_R1_C1 2.099e-02 1.715e-02 2.099e-02 
*LOADS
*RC U236:C 7.200e-04
*RC U77:B 7.200e-04
*RC U744:B 7.200e-04
*RC U717:B 7.200e-04
*RC U712:A 7.200e-04
*RC U615:A 7.200e-04
*RC U121:A 7.200e-04
*END

*R_NET n103 1.021e-02
*DRIVER U622:Y
*CELL nd3d1_hd
*C2_R1_C1 5.105e-03 9.100e-03 5.105e-03 
*LOADS
*RC U239:A 9.291e-05
*RC U718:C 9.291e-05
*END

*R_NET n104 9.690e-03
*DRIVER U857:Y
*CELL nr2d1_hd
*C2_R1_C1 4.845e-03 9.100e-03 4.845e-03 
*LOADS
*RC U622:A 8.818e-05
*RC U117:B 8.818e-05
*END

*R_NET n106 5.790e-03
*DRIVER U1383:Y
*CELL scg12d1_hd
*C2_R1_C1 2.895e-03 7.370e-03 2.895e-03 
*LOADS
*RC U119:A 4.267e-05
*END

*R_NET n107 2.181e-02
*DRIVER U719:Y
*CELL clknd2d1_hd
*C2_R1_C1 1.090e-02 1.094e-02 1.090e-02 
*LOADS
*RC U135:C 2.386e-04
*RC U123:B 2.386e-04
*RC U122:C 2.386e-04
*RC U119:B 2.386e-04
*END

*R_NET n108 2.826e-02
*DRIVER U718:Y
*CELL nd4d1_hd
*C2_R1_C1 1.413e-02 1.549e-02 1.413e-02 
*LOADS
*RC U719:B 4.377e-04
*RC U134:B 4.377e-04
*RC U123:D 4.377e-04
*RC U121:B 4.377e-04
*RC U119:D 4.377e-04
*END

*R_NET n110 5.570e-03
*DRIVER U122:Y
*CELL scg6d1_hd
*C2_R1_C1 2.785e-03 7.370e-03 2.785e-03 
*LOADS
*RC U121:C 4.105e-05
*END

*R_NET n111 9.730e-03
*DRIVER U1370:Y
*CELL nr3d1_hd
*C2_R1_C1 4.865e-03 9.100e-03 4.865e-03 
*LOADS
*RC U718:A 8.854e-05
*RC U122:A 8.854e-05
*END

*R_NET n112 5.790e-03
*DRIVER U1382:Y
*CELL scg12d1_hd
*C2_R1_C1 2.895e-03 7.370e-03 2.895e-03 
*LOADS
*RC U123:A 4.267e-05
*END

*R_NET n124 5.570e-03
*DRIVER U135:Y
*CELL scg6d1_hd
*C2_R1_C1 2.785e-03 7.370e-03 2.785e-03 
*LOADS
*RC U134:C 4.105e-05
*END

*R_NET n127 5.740e-03
*DRIVER U138:Y
*CELL nr4d1_hd
*C2_R1_C1 2.870e-03 7.370e-03 2.870e-03 
*LOADS
*RC U718:B 4.230e-05
*END

*R_NET n128 6.040e-03
*DRIVER U1371:Y
*CELL oa22d1_hd
*C2_R1_C1 3.020e-03 7.370e-03 3.020e-03 
*LOADS
*RC U138:B 4.451e-05
*END

*R_NET n129 6.070e-03
*DRIVER U1004:Y
*CELL scg2d1_hd
*C2_R1_C1 3.035e-03 7.370e-03 3.035e-03 
*LOADS
*RC U138:C 4.474e-05
*END

*R_NET n130 6.180e-03
*DRIVER U139:Y
*CELL scg16d1_hd
*C2_R1_C1 3.090e-03 7.370e-03 3.090e-03 
*LOADS
*RC U138:D 4.555e-05
*END

*R_NET n131 5.087e-02
*DRIVER U77:Y
*CELL nr3ad1_hd
*C2_R1_C1 2.544e-02 2.090e-02 2.544e-02 
*LOADS
*RC U305:C 1.063e-03
*RC U76:C 1.063e-03
*RC U1311:B 1.063e-03
*RC U1309:A 1.063e-03
*RC U1188:A 1.063e-03
*RC U1014:B 1.063e-03
*RC U843:A 1.063e-03
*RC U663:B 1.063e-03
*RC U139:A 1.063e-03
*END

*R_NET n132 1.010e-02
*DRIVER U955:Y
*CELL ad2d1_hd
*C2_R1_C1 5.050e-03 9.100e-03 5.050e-03 
*LOADS
*RC U1004:D 9.191e-05
*RC U143:B 9.191e-05
*END

*R_NET n136 5.900e-03
*DRIVER U1369:Y
*CELL nr2d1_hd
*C2_R1_C1 2.950e-03 7.370e-03 2.950e-03 
*LOADS
*RC U143:D 4.348e-05
*END

*R_NET n265 2.431e-02
*DRIVER U776:Y
*CELL clknd2d1_hd
*C2_R1_C1 1.216e-02 1.094e-02 1.216e-02 
*LOADS
*RC U1310:B 2.660e-04
*RC clk_r_REG17_S12:E 2.660e-04
*RC U1309:C 2.660e-04
*RC U554:B 2.660e-04
*END

*R_NET n509 2.290e-02
*DRIVER U236:Y
*CELL scg12d1_hd
*C2_R1_C1 1.145e-02 1.094e-02 1.145e-02 
*LOADS
*RC U1369:A 2.505e-04
*RC U1004:C 2.505e-04
*RC U143:A 2.505e-04
*RC clk_gate_clk_r_REG4_S5/latch:EN 2.505e-04
*END

*R_NET n511 2.299e-02
*DRIVER U237:Y
*CELL nr2d1_hd
*C2_R1_C1 1.149e-02 1.094e-02 1.149e-02 
*LOADS
*RC U557:A 2.515e-04
*RC U741:A 2.515e-04
*RC U138:A 2.515e-04
*RC clk_gate_clk_r_REG144_S3/latch:EN 2.515e-04
*END

*R_NET C1_Z_0 1.359e-01
*DRIVER U745:Y
*CELL clknd2d2_hd
*C2_R1_C1 6.794e-02 3.383e-02 6.794e-02 
*LOADS
*RC DP_OP_43J1_124_6938_U1:B 4.597e-03
*RC DP_OP_43J1_124_6938_U38:A 4.597e-03
*RC DP_OP_43J1_124_6938_U39:A 4.597e-03
*RC DP_OP_43J1_124_6938_U40:A 4.597e-03
*RC DP_OP_43J1_124_6938_U37:A 4.597e-03
*RC DP_OP_43J1_124_6938_U44:A 4.597e-03
*RC DP_OP_43J1_124_6938_U41:A 4.597e-03
*RC DP_OP_43J1_124_6938_U48:A 4.597e-03
*RC DP_OP_43J1_124_6938_U45:A 4.597e-03
*RC DP_OP_43J1_124_6938_U42:A 4.597e-03
*RC DP_OP_43J1_124_6938_U47:A 4.597e-03
*RC DP_OP_43J1_124_6938_U43:A 4.597e-03
*RC DP_OP_43J1_124_6938_U49:A 4.597e-03
*RC DP_OP_43J1_124_6938_U50:A 4.597e-03
*RC DP_OP_43J1_124_6938_U36:A 4.597e-03
*RC DP_OP_43J1_124_6938_U46:A 4.597e-03
*RC DP_OP_43J1_124_6938_U53:A 4.597e-03
*RC DP_OP_43J1_124_6938_U51:A 4.597e-03
*RC DP_OP_43J1_124_6938_U35:A 4.597e-03
*RC DP_OP_43J1_124_6938_U52:A 4.597e-03
*RC DP_OP_43J1_124_6938_U33:A 4.597e-03
*RC DP_OP_43J1_124_6938_U34:A 4.597e-03
*RC DP_OP_43J1_124_6938_U54:A 4.597e-03
*RC DP_OP_43J1_124_6938_U32:A 4.597e-03
*RC DP_OP_43J1_124_6938_U57:A 4.597e-03
*RC DP_OP_43J1_124_6938_U56:A 4.597e-03
*RC DP_OP_43J1_124_6938_U55:A 4.597e-03
*RC DP_OP_43J1_124_6938_U31:A 4.597e-03
*RC DP_OP_43J1_124_6938_U28:B 4.597e-03
*END

*R_NET C2_Z_26 5.860e-03
*DRIVER U971:Y
*CELL scg2d1_hd
*C2_R1_C1 2.930e-03 7.370e-03 2.930e-03 
*LOADS
*RC DP_OP_43J1_124_6938_U2:B 4.319e-05
*END

*R_NET C2_Z_25 5.860e-03
*DRIVER U978:Y
*CELL scg2d1_hd
*C2_R1_C1 2.930e-03 7.370e-03 2.930e-03 
*LOADS
*RC DP_OP_43J1_124_6938_U3:B 4.319e-05
*END

*R_NET C2_Z_24 5.860e-03
*DRIVER U960:Y
*CELL scg2d1_hd
*C2_R1_C1 2.930e-03 7.370e-03 2.930e-03 
*LOADS
*RC DP_OP_43J1_124_6938_U4:B 4.319e-05
*END

*R_NET C2_Z_23 5.860e-03
*DRIVER U963:Y
*CELL scg2d1_hd
*C2_R1_C1 2.930e-03 7.370e-03 2.930e-03 
*LOADS
*RC DP_OP_43J1_124_6938_U5:B 4.319e-05
*END

*R_NET C2_Z_22 5.860e-03
*DRIVER U968:Y
*CELL scg2d1_hd
*C2_R1_C1 2.930e-03 7.370e-03 2.930e-03 
*LOADS
*RC DP_OP_43J1_124_6938_U6:B 4.319e-05
*END

*R_NET C2_Z_21 5.860e-03
*DRIVER U977:Y
*CELL scg2d1_hd
*C2_R1_C1 2.930e-03 7.370e-03 2.930e-03 
*LOADS
*RC DP_OP_43J1_124_6938_U7:B 4.319e-05
*END

*R_NET C2_Z_20 5.860e-03
*DRIVER U746:Y
*CELL scg2d1_hd
*C2_R1_C1 2.930e-03 7.370e-03 2.930e-03 
*LOADS
*RC DP_OP_43J1_124_6938_U8:B 4.319e-05
*END

*R_NET C2_Z_19 5.860e-03
*DRIVER U748:Y
*CELL scg2d1_hd
*C2_R1_C1 2.930e-03 7.370e-03 2.930e-03 
*LOADS
*RC DP_OP_43J1_124_6938_U9:B 4.319e-05
*END

*R_NET C2_Z_18 5.860e-03
*DRIVER U750:Y
*CELL scg2d1_hd
*C2_R1_C1 2.930e-03 7.370e-03 2.930e-03 
*LOADS
*RC DP_OP_43J1_124_6938_U10:B 4.319e-05
*END

*R_NET C2_Z_17 5.860e-03
*DRIVER U752:Y
*CELL scg2d1_hd
*C2_R1_C1 2.930e-03 7.370e-03 2.930e-03 
*LOADS
*RC DP_OP_43J1_124_6938_U11:B 4.319e-05
*END

*R_NET C2_Z_16 5.860e-03
*DRIVER U754:Y
*CELL scg2d1_hd
*C2_R1_C1 2.930e-03 7.370e-03 2.930e-03 
*LOADS
*RC DP_OP_43J1_124_6938_U12:B 4.319e-05
*END

*R_NET C2_Z_15 5.860e-03
*DRIVER U756:Y
*CELL scg2d1_hd
*C2_R1_C1 2.930e-03 7.370e-03 2.930e-03 
*LOADS
*RC DP_OP_43J1_124_6938_U13:B 4.319e-05
*END

*R_NET C2_Z_14 5.860e-03
*DRIVER U758:Y
*CELL scg2d1_hd
*C2_R1_C1 2.930e-03 7.370e-03 2.930e-03 
*LOADS
*RC DP_OP_43J1_124_6938_U14:B 4.319e-05
*END

*R_NET C2_Z_13 5.860e-03
*DRIVER U760:Y
*CELL scg2d1_hd
*C2_R1_C1 2.930e-03 7.370e-03 2.930e-03 
*LOADS
*RC DP_OP_43J1_124_6938_U15:B 4.319e-05
*END

*R_NET C2_Z_12 5.860e-03
*DRIVER U762:Y
*CELL scg2d1_hd
*C2_R1_C1 2.930e-03 7.370e-03 2.930e-03 
*LOADS
*RC DP_OP_43J1_124_6938_U16:B 4.319e-05
*END

*R_NET C2_Z_11 5.860e-03
*DRIVER U764:Y
*CELL scg2d1_hd
*C2_R1_C1 2.930e-03 7.370e-03 2.930e-03 
*LOADS
*RC DP_OP_43J1_124_6938_U17:B 4.319e-05
*END

*R_NET C2_Z_10 5.860e-03
*DRIVER U765:Y
*CELL scg2d1_hd
*C2_R1_C1 2.930e-03 7.370e-03 2.930e-03 
*LOADS
*RC DP_OP_43J1_124_6938_U18:B 4.319e-05
*END

*R_NET C2_Z_9 5.860e-03
*DRIVER U767:Y
*CELL scg2d1_hd
*C2_R1_C1 2.930e-03 7.370e-03 2.930e-03 
*LOADS
*RC DP_OP_43J1_124_6938_U19:B 4.319e-05
*END

*R_NET C2_Z_8 5.860e-03
*DRIVER U769:Y
*CELL scg2d1_hd
*C2_R1_C1 2.930e-03 7.370e-03 2.930e-03 
*LOADS
*RC DP_OP_43J1_124_6938_U20:B 4.319e-05
*END

*R_NET C2_Z_7 5.860e-03
*DRIVER U771:Y
*CELL scg2d1_hd
*C2_R1_C1 2.930e-03 7.370e-03 2.930e-03 
*LOADS
*RC DP_OP_43J1_124_6938_U21:B 4.319e-05
*END

*R_NET C2_Z_6 5.860e-03
*DRIVER U826:Y
*CELL scg2d1_hd
*C2_R1_C1 2.930e-03 7.370e-03 2.930e-03 
*LOADS
*RC DP_OP_43J1_124_6938_U22:B 4.319e-05
*END

*R_NET C2_Z_5 5.860e-03
*DRIVER U974:Y
*CELL scg2d1_hd
*C2_R1_C1 2.930e-03 7.370e-03 2.930e-03 
*LOADS
*RC DP_OP_43J1_124_6938_U23:B 4.319e-05
*END

*R_NET C2_Z_4 5.860e-03
*DRIVER U976:Y
*CELL scg2d1_hd
*C2_R1_C1 2.930e-03 7.370e-03 2.930e-03 
*LOADS
*RC DP_OP_43J1_124_6938_U24:B 4.319e-05
*END

*R_NET C2_Z_3 5.860e-03
*DRIVER U973:Y
*CELL scg2d1_hd
*C2_R1_C1 2.930e-03 7.370e-03 2.930e-03 
*LOADS
*RC DP_OP_43J1_124_6938_U25:B 4.319e-05
*END

*R_NET C2_Z_2 5.860e-03
*DRIVER U966:Y
*CELL scg2d1_hd
*C2_R1_C1 2.930e-03 7.370e-03 2.930e-03 
*LOADS
*RC DP_OP_43J1_124_6938_U26:B 4.319e-05
*END

*R_NET C2_Z_1 5.860e-03
*DRIVER U969:Y
*CELL scg2d1_hd
*C2_R1_C1 2.930e-03 7.370e-03 2.930e-03 
*LOADS
*RC DP_OP_43J1_124_6938_U27:B 4.319e-05
*END

*R_NET C2_Z_0 6.030e-03
*DRIVER U959:Y
*CELL scg2d1_hd
*C2_R1_C1 3.015e-03 7.370e-03 3.015e-03 
*LOADS
*RC DP_OP_43J1_124_6938_U28:A 4.444e-05
*END

*R_NET C3_Z_26 6.330e-03
*DRIVER U961:Y
*CELL scg2d1_hd
*C2_R1_C1 3.165e-03 7.370e-03 3.165e-03 
*LOADS
*RC DP_OP_43J1_124_6938_U31:B 4.665e-05
*END

*R_NET C3_Z_25 6.330e-03
*DRIVER U956:Y
*CELL scg2d1_hd
*C2_R1_C1 3.165e-03 7.370e-03 3.165e-03 
*LOADS
*RC DP_OP_43J1_124_6938_U32:B 4.665e-05
*END

*R_NET C3_Z_24 6.330e-03
*DRIVER U970:Y
*CELL scg2d1_hd
*C2_R1_C1 3.165e-03 7.370e-03 3.165e-03 
*LOADS
*RC DP_OP_43J1_124_6938_U33:B 4.665e-05
*END

*R_NET C3_Z_23 6.330e-03
*DRIVER U962:Y
*CELL scg2d1_hd
*C2_R1_C1 3.165e-03 7.370e-03 3.165e-03 
*LOADS
*RC DP_OP_43J1_124_6938_U34:B 4.665e-05
*END

*R_NET C3_Z_22 6.330e-03
*DRIVER U965:Y
*CELL scg2d1_hd
*C2_R1_C1 3.165e-03 7.370e-03 3.165e-03 
*LOADS
*RC DP_OP_43J1_124_6938_U35:B 4.665e-05
*END

*R_NET C3_Z_21 6.330e-03
*DRIVER U556:Y
*CELL scg2d1_hd
*C2_R1_C1 3.165e-03 7.370e-03 3.165e-03 
*LOADS
*RC DP_OP_43J1_124_6938_U36:B 4.665e-05
*END

*R_NET C3_Z_20 6.330e-03
*DRIVER U747:Y
*CELL scg2d1_hd
*C2_R1_C1 3.165e-03 7.370e-03 3.165e-03 
*LOADS
*RC DP_OP_43J1_124_6938_U37:B 4.665e-05
*END

*R_NET C3_Z_19 6.330e-03
*DRIVER U749:Y
*CELL scg2d1_hd
*C2_R1_C1 3.165e-03 7.370e-03 3.165e-03 
*LOADS
*RC DP_OP_43J1_124_6938_U38:B 4.665e-05
*END

*R_NET C3_Z_18 6.330e-03
*DRIVER U751:Y
*CELL scg2d1_hd
*C2_R1_C1 3.165e-03 7.370e-03 3.165e-03 
*LOADS
*RC DP_OP_43J1_124_6938_U39:B 4.665e-05
*END

*R_NET C3_Z_17 6.330e-03
*DRIVER U753:Y
*CELL scg2d1_hd
*C2_R1_C1 3.165e-03 7.370e-03 3.165e-03 
*LOADS
*RC DP_OP_43J1_124_6938_U40:B 4.665e-05
*END

*R_NET C3_Z_16 6.330e-03
*DRIVER U755:Y
*CELL scg2d1_hd
*C2_R1_C1 3.165e-03 7.370e-03 3.165e-03 
*LOADS
*RC DP_OP_43J1_124_6938_U41:B 4.665e-05
*END

*R_NET C3_Z_15 6.330e-03
*DRIVER U757:Y
*CELL scg2d1_hd
*C2_R1_C1 3.165e-03 7.370e-03 3.165e-03 
*LOADS
*RC DP_OP_43J1_124_6938_U42:B 4.665e-05
*END

*R_NET C3_Z_14 6.330e-03
*DRIVER U759:Y
*CELL scg2d1_hd
*C2_R1_C1 3.165e-03 7.370e-03 3.165e-03 
*LOADS
*RC DP_OP_43J1_124_6938_U43:B 4.665e-05
*END

*R_NET C3_Z_13 6.330e-03
*DRIVER U761:Y
*CELL scg2d1_hd
*C2_R1_C1 3.165e-03 7.370e-03 3.165e-03 
*LOADS
*RC DP_OP_43J1_124_6938_U44:B 4.665e-05
*END

*R_NET C3_Z_12 6.330e-03
*DRIVER U763:Y
*CELL scg2d1_hd
*C2_R1_C1 3.165e-03 7.370e-03 3.165e-03 
*LOADS
*RC DP_OP_43J1_124_6938_U45:B 4.665e-05
*END

*R_NET C3_Z_11 6.330e-03
*DRIVER U825:Y
*CELL scg2d1_hd
*C2_R1_C1 3.165e-03 7.370e-03 3.165e-03 
*LOADS
*RC DP_OP_43J1_124_6938_U46:B 4.665e-05
*END

*R_NET C3_Z_10 6.330e-03
*DRIVER U766:Y
*CELL scg2d1_hd
*C2_R1_C1 3.165e-03 7.370e-03 3.165e-03 
*LOADS
*RC DP_OP_43J1_124_6938_U47:B 4.665e-05
*END

*R_NET C3_Z_9 6.330e-03
*DRIVER U768:Y
*CELL scg2d1_hd
*C2_R1_C1 3.165e-03 7.370e-03 3.165e-03 
*LOADS
*RC DP_OP_43J1_124_6938_U48:B 4.665e-05
*END

*R_NET C3_Z_8 6.330e-03
*DRIVER U770:Y
*CELL scg2d1_hd
*C2_R1_C1 3.165e-03 7.370e-03 3.165e-03 
*LOADS
*RC DP_OP_43J1_124_6938_U49:B 4.665e-05
*END

*R_NET C3_Z_7 6.330e-03
*DRIVER U772:Y
*CELL scg2d1_hd
*C2_R1_C1 3.165e-03 7.370e-03 3.165e-03 
*LOADS
*RC DP_OP_43J1_124_6938_U50:B 4.665e-05
*END

*R_NET C3_Z_6 6.330e-03
*DRIVER U773:Y
*CELL scg2d1_hd
*C2_R1_C1 3.165e-03 7.370e-03 3.165e-03 
*LOADS
*RC DP_OP_43J1_124_6938_U51:B 4.665e-05
*END

*R_NET C3_Z_5 6.330e-03
*DRIVER U774:Y
*CELL scg2d1_hd
*C2_R1_C1 3.165e-03 7.370e-03 3.165e-03 
*LOADS
*RC DP_OP_43J1_124_6938_U52:B 4.665e-05
*END

*R_NET C3_Z_4 6.330e-03
*DRIVER U972:Y
*CELL scg2d1_hd
*C2_R1_C1 3.165e-03 7.370e-03 3.165e-03 
*LOADS
*RC DP_OP_43J1_124_6938_U53:B 4.665e-05
*END

*R_NET C3_Z_3 6.330e-03
*DRIVER U975:Y
*CELL scg2d1_hd
*C2_R1_C1 3.165e-03 7.370e-03 3.165e-03 
*LOADS
*RC DP_OP_43J1_124_6938_U54:B 4.665e-05
*END

*R_NET C3_Z_2 6.330e-03
*DRIVER U967:Y
*CELL scg2d1_hd
*C2_R1_C1 3.165e-03 7.370e-03 3.165e-03 
*LOADS
*RC DP_OP_43J1_124_6938_U55:B 4.665e-05
*END

*R_NET C3_Z_1 6.330e-03
*DRIVER U957:Y
*CELL scg2d1_hd
*C2_R1_C1 3.165e-03 7.370e-03 3.165e-03 
*LOADS
*RC DP_OP_43J1_124_6938_U56:B 4.665e-05
*END

*R_NET C3_Z_0 6.330e-03
*DRIVER U958:Y
*CELL scg2d1_hd
*C2_R1_C1 3.165e-03 7.370e-03 3.165e-03 
*LOADS
*RC DP_OP_43J1_124_6938_U57:B 4.665e-05
*END

*R_NET DP_OP_43J1_124_6938_n58 5.510e-03
*DRIVER DP_OP_43J1_124_6938_U57:Y
*CELL xo2d1_hd
*C2_R1_C1 2.755e-03 7.370e-03 2.755e-03 
*LOADS
*RC DP_OP_43J1_124_6938_U28:CI 4.061e-05
*END

*R_NET DP_OP_43J1_124_6938_n57 6.030e-03
*DRIVER DP_OP_43J1_124_6938_U56:Y
*CELL xo2d1_hd
*C2_R1_C1 3.015e-03 7.370e-03 3.015e-03 
*LOADS
*RC DP_OP_43J1_124_6938_U27:A 4.444e-05
*END

*R_NET DP_OP_43J1_124_6938_n56 6.030e-03
*DRIVER DP_OP_43J1_124_6938_U55:Y
*CELL xo2d1_hd
*C2_R1_C1 3.015e-03 7.370e-03 3.015e-03 
*LOADS
*RC DP_OP_43J1_124_6938_U26:A 4.444e-05
*END

*R_NET DP_OP_43J1_124_6938_n55 6.030e-03
*DRIVER DP_OP_43J1_124_6938_U54:Y
*CELL xo2d1_hd
*C2_R1_C1 3.015e-03 7.370e-03 3.015e-03 
*LOADS
*RC DP_OP_43J1_124_6938_U25:A 4.444e-05
*END

*R_NET DP_OP_43J1_124_6938_n54 6.030e-03
*DRIVER DP_OP_43J1_124_6938_U53:Y
*CELL xo2d1_hd
*C2_R1_C1 3.015e-03 7.370e-03 3.015e-03 
*LOADS
*RC DP_OP_43J1_124_6938_U24:A 4.444e-05
*END

*R_NET DP_OP_43J1_124_6938_n53 6.030e-03
*DRIVER DP_OP_43J1_124_6938_U52:Y
*CELL xo2d1_hd
*C2_R1_C1 3.015e-03 7.370e-03 3.015e-03 
*LOADS
*RC DP_OP_43J1_124_6938_U23:A 4.444e-05
*END

*R_NET DP_OP_43J1_124_6938_n52 6.030e-03
*DRIVER DP_OP_43J1_124_6938_U51:Y
*CELL xo2d1_hd
*C2_R1_C1 3.015e-03 7.370e-03 3.015e-03 
*LOADS
*RC DP_OP_43J1_124_6938_U22:A 4.444e-05
*END

*R_NET DP_OP_43J1_124_6938_n51 6.030e-03
*DRIVER DP_OP_43J1_124_6938_U50:Y
*CELL xo2d1_hd
*C2_R1_C1 3.015e-03 7.370e-03 3.015e-03 
*LOADS
*RC DP_OP_43J1_124_6938_U21:A 4.444e-05
*END

*R_NET DP_OP_43J1_124_6938_n50 6.030e-03
*DRIVER DP_OP_43J1_124_6938_U49:Y
*CELL xo2d1_hd
*C2_R1_C1 3.015e-03 7.370e-03 3.015e-03 
*LOADS
*RC DP_OP_43J1_124_6938_U20:A 4.444e-05
*END

*R_NET DP_OP_43J1_124_6938_n49 6.030e-03
*DRIVER DP_OP_43J1_124_6938_U48:Y
*CELL xo2d1_hd
*C2_R1_C1 3.015e-03 7.370e-03 3.015e-03 
*LOADS
*RC DP_OP_43J1_124_6938_U19:A 4.444e-05
*END

*R_NET DP_OP_43J1_124_6938_n48 6.030e-03
*DRIVER DP_OP_43J1_124_6938_U47:Y
*CELL xo2d1_hd
*C2_R1_C1 3.015e-03 7.370e-03 3.015e-03 
*LOADS
*RC DP_OP_43J1_124_6938_U18:A 4.444e-05
*END

*R_NET DP_OP_43J1_124_6938_n47 6.030e-03
*DRIVER DP_OP_43J1_124_6938_U46:Y
*CELL xo2d1_hd
*C2_R1_C1 3.015e-03 7.370e-03 3.015e-03 
*LOADS
*RC DP_OP_43J1_124_6938_U17:A 4.444e-05
*END

*R_NET DP_OP_43J1_124_6938_n46 6.030e-03
*DRIVER DP_OP_43J1_124_6938_U45:Y
*CELL xo2d1_hd
*C2_R1_C1 3.015e-03 7.370e-03 3.015e-03 
*LOADS
*RC DP_OP_43J1_124_6938_U16:A 4.444e-05
*END

*R_NET DP_OP_43J1_124_6938_n45 6.030e-03
*DRIVER DP_OP_43J1_124_6938_U44:Y
*CELL xo2d1_hd
*C2_R1_C1 3.015e-03 7.370e-03 3.015e-03 
*LOADS
*RC DP_OP_43J1_124_6938_U15:A 4.444e-05
*END

*R_NET DP_OP_43J1_124_6938_n44 6.030e-03
*DRIVER DP_OP_43J1_124_6938_U43:Y
*CELL xo2d1_hd
*C2_R1_C1 3.015e-03 7.370e-03 3.015e-03 
*LOADS
*RC DP_OP_43J1_124_6938_U14:A 4.444e-05
*END

*R_NET DP_OP_43J1_124_6938_n43 6.030e-03
*DRIVER DP_OP_43J1_124_6938_U42:Y
*CELL xo2d1_hd
*C2_R1_C1 3.015e-03 7.370e-03 3.015e-03 
*LOADS
*RC DP_OP_43J1_124_6938_U13:A 4.444e-05
*END

*R_NET DP_OP_43J1_124_6938_n42 6.030e-03
*DRIVER DP_OP_43J1_124_6938_U41:Y
*CELL xo2d1_hd
*C2_R1_C1 3.015e-03 7.370e-03 3.015e-03 
*LOADS
*RC DP_OP_43J1_124_6938_U12:A 4.444e-05
*END

*R_NET DP_OP_43J1_124_6938_n41 6.030e-03
*DRIVER DP_OP_43J1_124_6938_U40:Y
*CELL xo2d1_hd
*C2_R1_C1 3.015e-03 7.370e-03 3.015e-03 
*LOADS
*RC DP_OP_43J1_124_6938_U11:A 4.444e-05
*END

*R_NET DP_OP_43J1_124_6938_n40 6.030e-03
*DRIVER DP_OP_43J1_124_6938_U39:Y
*CELL xo2d1_hd
*C2_R1_C1 3.015e-03 7.370e-03 3.015e-03 
*LOADS
*RC DP_OP_43J1_124_6938_U10:A 4.444e-05
*END

*R_NET DP_OP_43J1_124_6938_n39 6.030e-03
*DRIVER DP_OP_43J1_124_6938_U38:Y
*CELL xo2d1_hd
*C2_R1_C1 3.015e-03 7.370e-03 3.015e-03 
*LOADS
*RC DP_OP_43J1_124_6938_U9:A 4.444e-05
*END

*R_NET DP_OP_43J1_124_6938_n38 6.030e-03
*DRIVER DP_OP_43J1_124_6938_U37:Y
*CELL xo2d1_hd
*C2_R1_C1 3.015e-03 7.370e-03 3.015e-03 
*LOADS
*RC DP_OP_43J1_124_6938_U8:A 4.444e-05
*END

*R_NET DP_OP_43J1_124_6938_n37 6.030e-03
*DRIVER DP_OP_43J1_124_6938_U36:Y
*CELL xo2d1_hd
*C2_R1_C1 3.015e-03 7.370e-03 3.015e-03 
*LOADS
*RC DP_OP_43J1_124_6938_U7:A 4.444e-05
*END

*R_NET DP_OP_43J1_124_6938_n36 6.030e-03
*DRIVER DP_OP_43J1_124_6938_U35:Y
*CELL xo2d1_hd
*C2_R1_C1 3.015e-03 7.370e-03 3.015e-03 
*LOADS
*RC DP_OP_43J1_124_6938_U6:A 4.444e-05
*END

*R_NET DP_OP_43J1_124_6938_n35 6.030e-03
*DRIVER DP_OP_43J1_124_6938_U34:Y
*CELL xo2d1_hd
*C2_R1_C1 3.015e-03 7.370e-03 3.015e-03 
*LOADS
*RC DP_OP_43J1_124_6938_U5:A 4.444e-05
*END

*R_NET DP_OP_43J1_124_6938_n34 6.030e-03
*DRIVER DP_OP_43J1_124_6938_U33:Y
*CELL xo2d1_hd
*C2_R1_C1 3.015e-03 7.370e-03 3.015e-03 
*LOADS
*RC DP_OP_43J1_124_6938_U4:A 4.444e-05
*END

*R_NET DP_OP_43J1_124_6938_n33 6.030e-03
*DRIVER DP_OP_43J1_124_6938_U32:Y
*CELL xo2d1_hd
*C2_R1_C1 3.015e-03 7.370e-03 3.015e-03 
*LOADS
*RC DP_OP_43J1_124_6938_U3:A 4.444e-05
*END

*R_NET DP_OP_43J1_124_6938_n32 6.030e-03
*DRIVER DP_OP_43J1_124_6938_U31:Y
*CELL xo2d1_hd
*C2_R1_C1 3.015e-03 7.370e-03 3.015e-03 
*LOADS
*RC DP_OP_43J1_124_6938_U2:A 4.444e-05
*END

*R_NET DP_OP_43J1_124_6938_n27 5.510e-03
*DRIVER DP_OP_43J1_124_6938_U28:CO
*CELL fad1_hd
*C2_R1_C1 2.755e-03 7.370e-03 2.755e-03 
*LOADS
*RC DP_OP_43J1_124_6938_U27:CI 4.061e-05
*END

*R_NET DP_OP_43J1_124_6938_n26 5.510e-03
*DRIVER DP_OP_43J1_124_6938_U27:CO
*CELL fad1_hd
*C2_R1_C1 2.755e-03 7.370e-03 2.755e-03 
*LOADS
*RC DP_OP_43J1_124_6938_U26:CI 4.061e-05
*END

*R_NET DP_OP_43J1_124_6938_n25 5.510e-03
*DRIVER DP_OP_43J1_124_6938_U26:CO
*CELL fad1_hd
*C2_R1_C1 2.755e-03 7.370e-03 2.755e-03 
*LOADS
*RC DP_OP_43J1_124_6938_U25:CI 4.061e-05
*END

*R_NET DP_OP_43J1_124_6938_n24 5.510e-03
*DRIVER DP_OP_43J1_124_6938_U25:CO
*CELL fad1_hd
*C2_R1_C1 2.755e-03 7.370e-03 2.755e-03 
*LOADS
*RC DP_OP_43J1_124_6938_U24:CI 4.061e-05
*END

*R_NET DP_OP_43J1_124_6938_n23 5.510e-03
*DRIVER DP_OP_43J1_124_6938_U24:CO
*CELL fad1_hd
*C2_R1_C1 2.755e-03 7.370e-03 2.755e-03 
*LOADS
*RC DP_OP_43J1_124_6938_U23:CI 4.061e-05
*END

*R_NET DP_OP_43J1_124_6938_n22 5.510e-03
*DRIVER DP_OP_43J1_124_6938_U23:CO
*CELL fad1_hd
*C2_R1_C1 2.755e-03 7.370e-03 2.755e-03 
*LOADS
*RC DP_OP_43J1_124_6938_U22:CI 4.061e-05
*END

*R_NET DP_OP_43J1_124_6938_n21 5.510e-03
*DRIVER DP_OP_43J1_124_6938_U22:CO
*CELL fad1_hd
*C2_R1_C1 2.755e-03 7.370e-03 2.755e-03 
*LOADS
*RC DP_OP_43J1_124_6938_U21:CI 4.061e-05
*END

*R_NET DP_OP_43J1_124_6938_n20 5.510e-03
*DRIVER DP_OP_43J1_124_6938_U21:CO
*CELL fad1_hd
*C2_R1_C1 2.755e-03 7.370e-03 2.755e-03 
*LOADS
*RC DP_OP_43J1_124_6938_U20:CI 4.061e-05
*END

*R_NET DP_OP_43J1_124_6938_n19 5.510e-03