*SPEF "IEEE 1481-1999"
*DESIGN "float_multiplier"
*DATE "Wed Jun 17 12:53:15 2020"
*VENDOR "SYNOPSYS INC"
*PROGRAM "Synopsys Design Compiler cmos"
*VERSION "F-2011.09-SP5-3"
*DESIGN_FLOW "SYNTHESIS"
*DIVIDER /
*DELIMITER :
*BUS_DELIMITER []
*T_UNIT 1.0 NS
*C_UNIT 1.0 PF
*R_UNIT 1.0 KOHM
*L_UNIT 1.0 HENRY

*PORTS

i_A\[31\] I *L 0.000e+00 *S 0.000e+00 0.000e+00 
i_A\[30\] I *L 0.000e+00 *S 0.000e+00 0.000e+00 
i_A\[29\] I *L 0.000e+00 *S 0.000e+00 0.000e+00 
i_A\[28\] I *L 0.000e+00 *S 0.000e+00 0.000e+00 
i_A\[27\] I *L 0.000e+00 *S 0.000e+00 0.000e+00 
i_A\[26\] I *L 0.000e+00 *S 0.000e+00 0.000e+00 
i_A\[25\] I *L 0.000e+00 *S 0.000e+00 0.000e+00 
i_A\[24\] I *L 0.000e+00 *S 0.000e+00 0.000e+00 
i_A\[23\] I *L 0.000e+00 *S 0.000e+00 0.000e+00 
i_A\[22\] I *L 0.000e+00 *S 0.000e+00 0.000e+00 
i_A\[21\] I *L 0.000e+00 *S 0.000e+00 0.000e+00 
i_A\[20\] I *L 0.000e+00 *S 0.000e+00 0.000e+00 
i_A\[19\] I *L 0.000e+00 *S 0.000e+00 0.000e+00 
i_A\[18\] I *L 0.000e+00 *S 0.000e+00 0.000e+00 
i_A\[17\] I *L 0.000e+00 *S 0.000e+00 0.000e+00 
i_A\[16\] I *L 0.000e+00 *S 0.000e+00 0.000e+00 
i_A\[15\] I *L 0.000e+00 *S 0.000e+00 0.000e+00 
i_A\[14\] I *L 0.000e+00 *S 0.000e+00 0.000e+00 
i_A\[13\] I *L 0.000e+00 *S 0.000e+00 0.000e+00 
i_A\[12\] I *L 0.000e+00 *S 0.000e+00 0.000e+00 
i_A\[11\] I *L 0.000e+00 *S 0.000e+00 0.000e+00 
i_A\[10\] I *L 0.000e+00 *S 0.000e+00 0.000e+00 
i_A\[9\] I *L 0.000e+00 *S 0.000e+00 0.000e+00 
i_A\[8\] I *L 0.000e+00 *S 0.000e+00 0.000e+00 
i_A\[7\] I *L 0.000e+00 *S 0.000e+00 0.000e+00 
i_A\[6\] I *L 0.000e+00 *S 0.000e+00 0.000e+00 
i_A\[5\] I *L 0.000e+00 *S 0.000e+00 0.000e+00 
i_A\[4\] I *L 0.000e+00 *S 0.000e+00 0.000e+00 
i_A\[3\] I *L 0.000e+00 *S 0.000e+00 0.000e+00 
i_A\[2\] I *L 0.000e+00 *S 0.000e+00 0.000e+00 
i_A\[1\] I *L 0.000e+00 *S 0.000e+00 0.000e+00 
i_A\[0\] I *L 0.000e+00 *S 0.000e+00 0.000e+00 
i_B\[31\] I *L 0.000e+00 *S 0.000e+00 0.000e+00 
i_B\[30\] I *L 0.000e+00 *S 0.000e+00 0.000e+00 
i_B\[29\] I *L 0.000e+00 *S 0.000e+00 0.000e+00 
i_B\[28\] I *L 0.000e+00 *S 0.000e+00 0.000e+00 
i_B\[27\] I *L 0.000e+00 *S 0.000e+00 0.000e+00 
i_B\[26\] I *L 0.000e+00 *S 0.000e+00 0.000e+00 
i_B\[25\] I *L 0.000e+00 *S 0.000e+00 0.000e+00 
i_B\[24\] I *L 0.000e+00 *S 0.000e+00 0.000e+00 
i_B\[23\] I *L 0.000e+00 *S 0.000e+00 0.000e+00 
i_B\[22\] I *L 0.000e+00 *S 0.000e+00 0.000e+00 
i_B\[21\] I *L 0.000e+00 *S 0.000e+00 0.000e+00 
i_B\[20\] I *L 0.000e+00 *S 0.000e+00 0.000e+00 
i_B\[19\] I *L 0.000e+00 *S 0.000e+00 0.000e+00 
i_B\[18\] I *L 0.000e+00 *S 0.000e+00 0.000e+00 
i_B\[17\] I *L 0.000e+00 *S 0.000e+00 0.000e+00 
i_B\[16\] I *L 0.000e+00 *S 0.000e+00 0.000e+00 
i_B\[15\] I *L 0.000e+00 *S 0.000e+00 0.000e+00 
i_B\[14\] I *L 0.000e+00 *S 0.000e+00 0.000e+00 
i_B\[13\] I *L 0.000e+00 *S 0.000e+00 0.000e+00 
i_B\[12\] I *L 0.000e+00 *S 0.000e+00 0.000e+00 
i_B\[11\] I *L 0.000e+00 *S 0.000e+00 0.000e+00 
i_B\[10\] I *L 0.000e+00 *S 0.000e+00 0.000e+00 
i_B\[9\] I *L 0.000e+00 *S 0.000e+00 0.000e+00 
i_B\[8\] I *L 0.000e+00 *S 0.000e+00 0.000e+00 
i_B\[7\] I *L 0.000e+00 *S 0.000e+00 0.000e+00 
i_B\[6\] I *L 0.000e+00 *S 0.000e+00 0.000e+00 
i_B\[5\] I *L 0.000e+00 *S 0.000e+00 0.000e+00 
i_B\[4\] I *L 0.000e+00 *S 0.000e+00 0.000e+00 
i_B\[3\] I *L 0.000e+00 *S 0.000e+00 0.000e+00 
i_B\[2\] I *L 0.000e+00 *S 0.000e+00 0.000e+00 
i_B\[1\] I *L 0.000e+00 *S 0.000e+00 0.000e+00 
i_B\[0\] I *L 0.000e+00 *S 0.000e+00 0.000e+00 
i_AB_STB I *L 0.000e+00 *S 0.000e+00 0.000e+00 
o_AB_ACK O *L 1.035e-02 *S 1.809e-01 1.469e-01 
o_Z\[31\] O *L 1.035e-02 *S 1.251e-01 1.003e-01 
o_Z\[30\] O *L 1.035e-02 *S 1.251e-01 1.003e-01 
o_Z\[29\] O *L 1.035e-02 *S 1.251e-01 1.003e-01 
o_Z\[28\] O *L 1.035e-02 *S 1.251e-01 1.003e-01 
o_Z\[27\] O *L 1.035e-02 *S 1.251e-01 1.003e-01 
o_Z\[26\] O *L 1.035e-02 *S 1.251e-01 1.003e-01 
o_Z\[25\] O *L 1.035e-02 *S 1.251e-01 1.003e-01 
o_Z\[24\] O *L 1.035e-02 *S 1.251e-01 1.003e-01 
o_Z\[23\] O *L 1.035e-02 *S 1.251e-01 1.003e-01 
o_Z\[22\] O *L 1.035e-02 *S 1.251e-01 1.003e-01 
o_Z\[21\] O *L 1.035e-02 *S 1.251e-01 1.003e-01 
o_Z\[20\] O *L 1.035e-02 *S 1.251e-01 1.003e-01 
o_Z\[19\] O *L 1.035e-02 *S 1.251e-01 1.003e-01 
o_Z\[18\] O *L 1.035e-02 *S 1.251e-01 1.003e-01 
o_Z\[17\] O *L 1.035e-02 *S 1.251e-01 1.003e-01 
o_Z\[16\] O *L 1.035e-02 *S 1.251e-01 1.003e-01 
o_Z\[15\] O *L 1.035e-02 *S 1.251e-01 1.003e-01 
o_Z\[14\] O *L 1.035e-02 *S 1.251e-01 1.003e-01 
o_Z\[13\] O *L 1.035e-02 *S 1.251e-01 1.003e-01 
o_Z\[12\] O *L 1.035e-02 *S 1.251e-01 1.003e-01 
o_Z\[11\] O *L 1.035e-02 *S 1.251e-01 1.003e-01 
o_Z\[10\] O *L 1.035e-02 *S 1.251e-01 1.003e-01 
o_Z\[9\] O *L 1.035e-02 *S 1.251e-01 1.003e-01 
o_Z\[8\] O *L 1.035e-02 *S 1.251e-01 1.003e-01 
o_Z\[7\] O *L 1.035e-02 *S 1.251e-01 1.003e-01 
o_Z\[6\] O *L 1.035e-02 *S 1.251e-01 1.003e-01 
o_Z\[5\] O *L 1.035e-02 *S 1.251e-01 1.003e-01 
o_Z\[4\] O *L 1.035e-02 *S 1.251e-01 1.003e-01 
o_Z\[3\] O *L 1.035e-02 *S 1.251e-01 1.003e-01 
o_Z\[2\] O *L 1.035e-02 *S 1.251e-01 1.003e-01 
o_Z\[1\] O *L 1.035e-02 *S 1.251e-01 1.003e-01 
o_Z\[0\] O *L 1.035e-02 *S 1.251e-01 1.003e-01 
o_Z_STB O *L 1.035e-02 *S 1.809e-01 1.469e-01 
i_Z_ACK I *L 0.000e+00 *S 0.000e+00 0.000e+00 
i_CLK I *L 0.000e+00 *S 0.000e+00 0.000e+00 
i_RST I *L 0.000e+00 *S 0.000e+00 0.000e+00 

*R_NET i_A\[31\] 4.640e-03
*DRIVER i_A\[31\]
*CELL NULL
*C2_R1_C1 2.320e-03 7.710e-03 2.320e-03 
*LOADS
*RC a_reg_31_:D 3.577e-05
*END

*R_NET i_A\[30\] 4.640e-03
*DRIVER i_A\[30\]
*CELL NULL
*C2_R1_C1 2.320e-03 7.710e-03 2.320e-03 
*LOADS
*RC a_reg_30_:D 3.577e-05
*END

*R_NET i_A\[29\] 4.640e-03
*DRIVER i_A\[29\]
*CELL NULL
*C2_R1_C1 2.320e-03 7.710e-03 2.320e-03 
*LOADS
*RC a_reg_29_:D 3.577e-05
*END

*R_NET i_A\[28\] 4.640e-03
*DRIVER i_A\[28\]
*CELL NULL
*C2_R1_C1 2.320e-03 7.710e-03 2.320e-03 
*LOADS
*RC a_reg_28_:D 3.577e-05
*END

*R_NET i_A\[27\] 4.640e-03
*DRIVER i_A\[27\]
*CELL NULL
*C2_R1_C1 2.320e-03 7.710e-03 2.320e-03 
*LOADS
*RC a_reg_27_:D 3.577e-05
*END

*R_NET i_A\[26\] 4.640e-03
*DRIVER i_A\[26\]
*CELL NULL
*C2_R1_C1 2.320e-03 7.710e-03 2.320e-03 
*LOADS
*RC a_reg_26_:D 3.577e-05
*END

*R_NET i_A\[25\] 4.640e-03
*DRIVER i_A\[25\]
*CELL NULL
*C2_R1_C1 2.320e-03 7.710e-03 2.320e-03 
*LOADS
*RC a_reg_25_:D 3.577e-05
*END

*R_NET i_A\[24\] 4.640e-03
*DRIVER i_A\[24\]
*CELL NULL
*C2_R1_C1 2.320e-03 7.710e-03 2.320e-03 
*LOADS
*RC a_reg_24_:D 3.577e-05
*END

*R_NET i_A\[23\] 4.640e-03
*DRIVER i_A\[23\]
*CELL NULL
*C2_R1_C1 2.320e-03 7.710e-03 2.320e-03 
*LOADS
*RC a_reg_23_:D 3.577e-05
*END

*R_NET i_A\[22\] 4.640e-03
*DRIVER i_A\[22\]
*CELL NULL
*C2_R1_C1 2.320e-03 7.710e-03 2.320e-03 
*LOADS
*RC a_reg_22_:D 3.577e-05
*END

*R_NET i_A\[21\] 4.640e-03
*DRIVER i_A\[21\]
*CELL NULL
*C2_R1_C1 2.320e-03 7.710e-03 2.320e-03 
*LOADS
*RC a_reg_21_:D 3.577e-05
*END

*R_NET i_A\[20\] 4.640e-03
*DRIVER i_A\[20\]
*CELL NULL
*C2_R1_C1 2.320e-03 7.710e-03 2.320e-03 
*LOADS
*RC a_reg_20_:D 3.577e-05
*END

*R_NET i_A\[19\] 4.640e-03
*DRIVER i_A\[19\]
*CELL NULL
*C2_R1_C1 2.320e-03 7.710e-03 2.320e-03 
*LOADS
*RC a_reg_19_:D 3.577e-05
*END

*R_NET i_A\[18\] 4.640e-03
*DRIVER i_A\[18\]
*CELL NULL
*C2_R1_C1 2.320e-03 7.710e-03 2.320e-03 
*LOADS
*RC a_reg_18_:D 3.577e-05
*END

*R_NET i_A\[17\] 4.640e-03
*DRIVER i_A\[17\]
*CELL NULL
*C2_R1_C1 2.320e-03 7.710e-03 2.320e-03 
*LOADS
*RC a_reg_17_:D 3.577e-05
*END

*R_NET i_A\[16\] 4.640e-03
*DRIVER i_A\[16\]
*CELL NULL
*C2_R1_C1 2.320e-03 7.710e-03 2.320e-03 
*LOADS
*RC a_reg_16_:D 3.577e-05
*END

*R_NET i_A\[15\] 4.640e-03
*DRIVER i_A\[15\]
*CELL NULL
*C2_R1_C1 2.320e-03 7.710e-03 2.320e-03 
*LOADS
*RC a_reg_15_:D 3.577e-05
*END

*R_NET i_A\[14\] 4.640e-03
*DRIVER i_A\[14\]
*CELL NULL
*C2_R1_C1 2.320e-03 7.710e-03 2.320e-03 
*LOADS
*RC a_reg_14_:D 3.577e-05
*END

*R_NET i_A\[13\] 4.640e-03
*DRIVER i_A\[13\]
*CELL NULL
*C2_R1_C1 2.320e-03 7.710e-03 2.320e-03 
*LOADS
*RC a_reg_13_:D 3.577e-05
*END

*R_NET i_A\[12\] 4.640e-03
*DRIVER i_A\[12\]
*CELL NULL
*C2_R1_C1 2.320e-03 7.710e-03 2.320e-03 
*LOADS
*RC a_reg_12_:D 3.577e-05
*END

*R_NET i_A\[11\] 4.640e-03
*DRIVER i_A\[11\]
*CELL NULL
*C2_R1_C1 2.320e-03 7.710e-03 2.320e-03 
*LOADS
*RC a_reg_11_:D 3.577e-05
*END

*R_NET i_A\[10\] 4.640e-03
*DRIVER i_A\[10\]
*CELL NULL
*C2_R1_C1 2.320e-03 7.710e-03 2.320e-03 
*LOADS
*RC a_reg_10_:D 3.577e-05
*END

*R_NET i_A\[9\] 4.640e-03
*DRIVER i_A\[9\]
*CELL NULL
*C2_R1_C1 2.320e-03 7.710e-03 2.320e-03 
*LOADS
*RC a_reg_9_:D 3.577e-05
*END

*R_NET i_A\[8\] 4.640e-03
*DRIVER i_A\[8\]
*CELL NULL
*C2_R1_C1 2.320e-03 7.710e-03 2.320e-03 
*LOADS
*RC a_reg_8_:D 3.577e-05
*END

*R_NET i_A\[7\] 4.640e-03
*DRIVER i_A\[7\]
*CELL NULL
*C2_R1_C1 2.320e-03 7.710e-03 2.320e-03 
*LOADS
*RC a_reg_7_:D 3.577e-05
*END

*R_NET i_A\[6\] 4.640e-03
*DRIVER i_A\[6\]
*CELL NULL
*C2_R1_C1 2.320e-03 7.710e-03 2.320e-03 
*LOADS
*RC a_reg_6_:D 3.577e-05
*END

*R_NET i_A\[5\] 4.640e-03
*DRIVER i_A\[5\]
*CELL NULL
*C2_R1_C1 2.320e-03 7.710e-03 2.320e-03 
*LOADS
*RC a_reg_5_:D 3.577e-05
*END

*R_NET i_A\[4\] 4.640e-03
*DRIVER i_A\[4\]
*CELL NULL
*C2_R1_C1 2.320e-03 7.710e-03 2.320e-03 
*LOADS
*RC a_reg_4_:D 3.577e-05
*END

*R_NET i_A\[3\] 4.640e-03
*DRIVER i_A\[3\]
*CELL NULL
*C2_R1_C1 2.320e-03 7.710e-03 2.320e-03 
*LOADS
*RC a_reg_3_:D 3.577e-05
*END

*R_NET i_A\[2\] 4.640e-03
*DRIVER i_A\[2\]
*CELL NULL
*C2_R1_C1 2.320e-03 7.710e-03 2.320e-03 
*LOADS
*RC a_reg_2_:D 3.577e-05
*END

*R_NET i_A\[1\] 4.640e-03
*DRIVER i_A\[1\]
*CELL NULL
*C2_R1_C1 2.320e-03 7.710e-03 2.320e-03 
*LOADS
*RC a_reg_1_:D 3.577e-05
*END

*R_NET i_A\[0\] 4.640e-03
*DRIVER i_A\[0\]
*CELL NULL
*C2_R1_C1 2.320e-03 7.710e-03 2.320e-03 
*LOADS
*RC a_reg_0_:D 3.577e-05
*END

*R_NET i_B\[31\] 4.640e-03
*DRIVER i_B\[31\]
*CELL NULL
*C2_R1_C1 2.320e-03 7.710e-03 2.320e-03 
*LOADS
*RC b_reg_31_:D 3.577e-05
*END

*R_NET i_B\[30\] 4.640e-03
*DRIVER i_B\[30\]
*CELL NULL
*C2_R1_C1 2.320e-03 7.710e-03 2.320e-03 
*LOADS
*RC b_reg_30_:D 3.577e-05
*END

*R_NET i_B\[29\] 4.640e-03
*DRIVER i_B\[29\]
*CELL NULL
*C2_R1_C1 2.320e-03 7.710e-03 2.320e-03 
*LOADS
*RC b_reg_29_:D 3.577e-05
*END

*R_NET i_B\[28\] 4.640e-03
*DRIVER i_B\[28\]
*CELL NULL
*C2_R1_C1 2.320e-03 7.710e-03 2.320e-03 
*LOADS
*RC b_reg_28_:D 3.577e-05
*END

*R_NET i_B\[27\] 4.640e-03
*DRIVER i_B\[27\]
*CELL NULL
*C2_R1_C1 2.320e-03 7.710e-03 2.320e-03 
*LOADS
*RC b_reg_27_:D 3.577e-05
*END

*R_NET i_B\[26\] 4.640e-03
*DRIVER i_B\[26\]
*CELL NULL
*C2_R1_C1 2.320e-03 7.710e-03 2.320e-03 
*LOADS
*RC b_reg_26_:D 3.577e-05
*END

*R_NET i_B\[25\] 4.640e-03
*DRIVER i_B\[25\]
*CELL NULL
*C2_R1_C1 2.320e-03 7.710e-03 2.320e-03 
*LOADS
*RC b_reg_25_:D 3.577e-05
*END

*R_NET i_B\[24\] 4.640e-03
*DRIVER i_B\[24\]
*CELL NULL
*C2_R1_C1 2.320e-03 7.710e-03 2.320e-03 
*LOADS
*RC b_reg_24_:D 3.577e-05
*END

*R_NET i_B\[23\] 4.640e-03
*DRIVER i_B\[23\]
*CELL NULL
*C2_R1_C1 2.320e-03 7.710e-03 2.320e-03 
*LOADS
*RC b_reg_23_:D 3.577e-05
*END

*R_NET i_B\[22\] 4.640e-03
*DRIVER i_B\[22\]
*CELL NULL
*C2_R1_C1 2.320e-03 7.710e-03 2.320e-03 
*LOADS
*RC b_reg_22_:D 3.577e-05
*END

*R_NET i_B\[21\] 4.640e-03
*DRIVER i_B\[21\]
*CELL NULL
*C2_R1_C1 2.320e-03 7.710e-03 2.320e-03 
*LOADS
*RC b_reg_21_:D 3.577e-05
*END

*R_NET i_B\[20\] 4.640e-03
*DRIVER i_B\[20\]
*CELL NULL
*C2_R1_C1 2.320e-03 7.710e-03 2.320e-03 
*LOADS
*RC b_reg_20_:D 3.577e-05
*END

*R_NET i_B\[19\] 4.640e-03
*DRIVER i_B\[19\]
*CELL NULL
*C2_R1_C1 2.320e-03 7.710e-03 2.320e-03 
*LOADS
*RC b_reg_19_:D 3.577e-05
*END

*R_NET i_B\[18\] 4.640e-03
*DRIVER i_B\[18\]
*CELL NULL
*C2_R1_C1 2.320e-03 7.710e-03 2.320e-03 
*LOADS
*RC b_reg_18_:D 3.577e-05
*END

*R_NET i_B\[17\] 4.640e-03
*DRIVER i_B\[17\]
*CELL NULL
*C2_R1_C1 2.320e-03 7.710e-03 2.320e-03 
*LOADS
*RC b_reg_17_:D 3.577e-05
*END

*R_NET i_B\[16\] 4.640e-03
*DRIVER i_B\[16\]
*CELL NULL
*C2_R1_C1 2.320e-03 7.710e-03 2.320e-03 
*LOADS
*RC b_reg_16_:D 3.577e-05
*END

*R_NET i_B\[15\] 4.640e-03
*DRIVER i_B\[15\]
*CELL NULL
*C2_R1_C1 2.320e-03 7.710e-03 2.320e-03 
*LOADS
*RC b_reg_15_:D 3.577e-05
*END

*R_NET i_B\[14\] 4.640e-03
*DRIVER i_B\[14\]
*CELL NULL
*C2_R1_C1 2.320e-03 7.710e-03 2.320e-03 
*LOADS
*RC b_reg_14_:D 3.577e-05
*END

*R_NET i_B\[13\] 4.640e-03
*DRIVER i_B\[13\]
*CELL NULL
*C2_R1_C1 2.320e-03 7.710e-03 2.320e-03 
*LOADS
*RC b_reg_13_:D 3.577e-05
*END

*R_NET i_B\[12\] 4.640e-03
*DRIVER i_B\[12\]
*CELL NULL
*C2_R1_C1 2.320e-03 7.710e-03 2.320e-03 
*LOADS
*RC b_reg_12_:D 3.577e-05
*END

*R_NET i_B\[11\] 4.640e-03
*DRIVER i_B\[11\]
*CELL NULL
*C2_R1_C1 2.320e-03 7.710e-03 2.320e-03 
*LOADS
*RC b_reg_11_:D 3.577e-05
*END

*R_NET i_B\[10\] 4.640e-03
*DRIVER i_B\[10\]
*CELL NULL
*C2_R1_C1 2.320e-03 7.710e-03 2.320e-03 
*LOADS
*RC b_reg_10_:D 3.577e-05
*END

*R_NET i_B\[9\] 4.640e-03
*DRIVER i_B\[9\]
*CELL NULL
*C2_R1_C1 2.320e-03 7.710e-03 2.320e-03 
*LOADS
*RC b_reg_9_:D 3.577e-05
*END

*R_NET i_B\[8\] 4.640e-03
*DRIVER i_B\[8\]
*CELL NULL
*C2_R1_C1 2.320e-03 7.710e-03 2.320e-03 
*LOADS
*RC b_reg_8_:D 3.577e-05
*END

*R_NET i_B\[7\] 4.640e-03
*DRIVER i_B\[7\]
*CELL NULL
*C2_R1_C1 2.320e-03 7.710e-03 2.320e-03 
*LOADS
*RC b_reg_7_:D 3.577e-05
*END

*R_NET i_B\[6\] 4.640e-03
*DRIVER i_B\[6\]
*CELL NULL
*C2_R1_C1 2.320e-03 7.710e-03 2.320e-03 
*LOADS
*RC b_reg_6_:D 3.577e-05
*END

*R_NET i_B\[5\] 4.640e-03
*DRIVER i_B\[5\]
*CELL NULL
*C2_R1_C1 2.320e-03 7.710e-03 2.320e-03 
*LOADS
*RC b_reg_5_:D 3.577e-05
*END

*R_NET i_B\[4\] 4.640e-03
*DRIVER i_B\[4\]
*CELL NULL
*C2_R1_C1 2.320e-03 7.710e-03 2.320e-03 
*LOADS
*RC b_reg_4_:D 3.577e-05
*END

*R_NET i_B\[3\] 4.640e-03
*DRIVER i_B\[3\]
*CELL NULL
*C2_R1_C1 2.320e-03 7.710e-03 2.320e-03 
*LOADS
*RC b_reg_3_:D 3.577e-05
*END

*R_NET i_B\[2\] 4.640e-03
*DRIVER i_B\[2\]
*CELL NULL
*C2_R1_C1 2.320e-03 7.710e-03 2.320e-03 
*LOADS
*RC b_reg_2_:D 3.577e-05
*END

*R_NET i_B\[1\] 4.640e-03
*DRIVER i_B\[1\]
*CELL NULL
*C2_R1_C1 2.320e-03 7.710e-03 2.320e-03 
*LOADS
*RC b_reg_1_:D 3.577e-05
*END

*R_NET i_B\[0\] 4.640e-03
*DRIVER i_B\[0\]
*CELL NULL
*C2_R1_C1 2.320e-03 7.710e-03 2.320e-03 
*LOADS
*RC b_reg_0_:D 3.577e-05
*END

*R_NET i_AB_STB 5.340e-03
*DRIVER i_AB_STB
*CELL NULL
*C2_R1_C1 2.670e-03 7.710e-03 2.670e-03 
*LOADS
*RC U248:A 4.117e-05
*END

*R_NET o_AB_ACK 2.038e-02
*DRIVER o_AB_ACK_reg:Q
*CELL fds2eqd1_hd
*C2_R1_C1 1.019e-02 9.910e-03 1.019e-02 
*LOADS
*RC U248:B 2.020e-04
*RC o_AB_ACK 2.020e-04
*END

*R_NET o_Z\[31\] 1.364e-02
*DRIVER o_Z_reg_31_:Q
*CELL fd1eqd1_hd
*C2_R1_C1 6.820e-03 7.710e-03 6.820e-03 
*LOADS
*RC o_Z\[31\] 1.052e-04
*END

*R_NET o_Z\[30\] 1.364e-02
*DRIVER o_Z_reg_30_:Q
*CELL fd1eqd1_hd
*C2_R1_C1 6.820e-03 7.710e-03 6.820e-03 
*LOADS
*RC o_Z\[30\] 1.052e-04
*END

*R_NET o_Z\[29\] 1.364e-02
*DRIVER o_Z_reg_29_:Q
*CELL fd1eqd1_hd
*C2_R1_C1 6.820e-03 7.710e-03 6.820e-03 
*LOADS
*RC o_Z\[29\] 1.052e-04
*END

*R_NET o_Z\[28\] 1.364e-02
*DRIVER o_Z_reg_28_:Q
*CELL fd1eqd1_hd
*C2_R1_C1 6.820e-03 7.710e-03 6.820e-03 
*LOADS
*RC o_Z\[28\] 1.052e-04
*END

*R_NET o_Z\[27\] 1.364e-02
*DRIVER o_Z_reg_27_:Q
*CELL fd1eqd1_hd
*C2_R1_C1 6.820e-03 7.710e-03 6.820e-03 
*LOADS
*RC o_Z\[27\] 1.052e-04
*END

*R_NET o_Z\[26\] 1.364e-02
*DRIVER o_Z_reg_26_:Q
*CELL fd1eqd1_hd
*C2_R1_C1 6.820e-03 7.710e-03 6.820e-03 
*LOADS
*RC o_Z\[26\] 1.052e-04
*END

*R_NET o_Z\[25\] 1.364e-02
*DRIVER o_Z_reg_25_:Q
*CELL fd1eqd1_hd
*C2_R1_C1 6.820e-03 7.710e-03 6.820e-03 
*LOADS
*RC o_Z\[25\] 1.052e-04
*END

*R_NET o_Z\[24\] 1.364e-02
*DRIVER o_Z_reg_24_:Q
*CELL fd1eqd1_hd
*C2_R1_C1 6.820e-03 7.710e-03 6.820e-03 
*LOADS
*RC o_Z\[24\] 1.052e-04
*END

*R_NET o_Z\[23\] 1.364e-02
*DRIVER o_Z_reg_23_:Q
*CELL fd1eqd1_hd
*C2_R1_C1 6.820e-03 7.710e-03 6.820e-03 
*LOADS
*RC o_Z\[23\] 1.052e-04
*END

*R_NET o_Z\[22\] 1.364e-02
*DRIVER o_Z_reg_22_:Q
*CELL fd1eqd1_hd
*C2_R1_C1 6.820e-03 7.710e-03 6.820e-03 
*LOADS
*RC o_Z\[22\] 1.052e-04
*END

*R_NET o_Z\[21\] 1.364e-02
*DRIVER o_Z_reg_21_:Q
*CELL fd1eqd1_hd
*C2_R1_C1 6.820e-03 7.710e-03 6.820e-03 
*LOADS
*RC o_Z\[21\] 1.052e-04
*END

*R_NET o_Z\[20\] 1.364e-02
*DRIVER o_Z_reg_20_:Q
*CELL fd1eqd1_hd
*C2_R1_C1 6.820e-03 7.710e-03 6.820e-03 
*LOADS
*RC o_Z\[20\] 1.052e-04
*END

*R_NET o_Z\[19\] 1.364e-02
*DRIVER o_Z_reg_19_:Q
*CELL fd1eqd1_hd
*C2_R1_C1 6.820e-03 7.710e-03 6.820e-03 
*LOADS
*RC o_Z\[19\] 1.052e-04
*END

*R_NET o_Z\[18\] 1.364e-02
*DRIVER o_Z_reg_18_:Q
*CELL fd1eqd1_hd
*C2_R1_C1 6.820e-03 7.710e-03 6.820e-03 
*LOADS
*RC o_Z\[18\] 1.052e-04
*END

*R_NET o_Z\[17\] 1.364e-02
*DRIVER o_Z_reg_17_:Q
*CELL fd1eqd1_hd
*C2_R1_C1 6.820e-03 7.710e-03 6.820e-03 
*LOADS
*RC o_Z\[17\] 1.052e-04
*END

*R_NET o_Z\[16\] 1.364e-02
*DRIVER o_Z_reg_16_:Q
*CELL fd1eqd1_hd
*C2_R1_C1 6.820e-03 7.710e-03 6.820e-03 
*LOADS
*RC o_Z\[16\] 1.052e-04
*END

*R_NET o_Z\[15\] 1.364e-02
*DRIVER o_Z_reg_15_:Q
*CELL fd1eqd1_hd
*C2_R1_C1 6.820e-03 7.710e-03 6.820e-03 
*LOADS
*RC o_Z\[15\] 1.052e-04
*END

*R_NET o_Z\[14\] 1.364e-02
*DRIVER o_Z_reg_14_:Q
*CELL fd1eqd1_hd
*C2_R1_C1 6.820e-03 7.710e-03 6.820e-03 
*LOADS
*RC o_Z\[14\] 1.052e-04
*END

*R_NET o_Z\[13\] 1.364e-02
*DRIVER o_Z_reg_13_:Q
*CELL fd1eqd1_hd
*C2_R1_C1 6.820e-03 7.710e-03 6.820e-03 
*LOADS
*RC o_Z\[13\] 1.052e-04
*END

*R_NET o_Z\[12\] 1.364e-02
*DRIVER o_Z_reg_12_:Q
*CELL fd1eqd1_hd
*C2_R1_C1 6.820e-03 7.710e-03 6.820e-03 
*LOADS
*RC o_Z\[12\] 1.052e-04
*END

*R_NET o_Z\[11\] 1.364e-02
*DRIVER o_Z_reg_11_:Q
*CELL fd1eqd1_hd
*C2_R1_C1 6.820e-03 7.710e-03 6.820e-03 
*LOADS
*RC o_Z\[11\] 1.052e-04
*END

*R_NET o_Z\[10\] 1.364e-02
*DRIVER o_Z_reg_10_:Q
*CELL fd1eqd1_hd
*C2_R1_C1 6.820e-03 7.710e-03 6.820e-03 
*LOADS
*RC o_Z\[10\] 1.052e-04
*END

*R_NET o_Z\[9\] 1.364e-02
*DRIVER o_Z_reg_9_:Q
*CELL fd1eqd1_hd
*C2_R1_C1 6.820e-03 7.710e-03 6.820e-03 
*LOADS
*RC o_Z\[9\] 1.052e-04
*END

*R_NET o_Z\[8\] 1.364e-02
*DRIVER o_Z_reg_8_:Q
*CELL fd1eqd1_hd
*C2_R1_C1 6.820e-03 7.710e-03 6.820e-03 
*LOADS
*RC o_Z\[8\] 1.052e-04
*END

*R_NET o_Z\[7\] 1.364e-02
*DRIVER o_Z_reg_7_:Q
*CELL fd1eqd1_hd
*C2_R1_C1 6.820e-03 7.710e-03 6.820e-03 
*LOADS
*RC o_Z\[7\] 1.052e-04
*END

*R_NET o_Z\[6\] 1.364e-02
*DRIVER o_Z_reg_6_:Q
*CELL fd1eqd1_hd
*C2_R1_C1 6.820e-03 7.710e-03 6.820e-03 
*LOADS
*RC o_Z\[6\] 1.052e-04
*END

*R_NET o_Z\[5\] 1.364e-02
*DRIVER o_Z_reg_5_:Q
*CELL fd1eqd1_hd
*C2_R1_C1 6.820e-03 7.710e-03 6.820e-03 
*LOADS
*RC o_Z\[5\] 1.052e-04
*END

*R_NET o_Z\[4\] 1.364e-02
*DRIVER o_Z_reg_4_:Q
*CELL fd1eqd1_hd
*C2_R1_C1 6.820e-03 7.710e-03 6.820e-03 
*LOADS
*RC o_Z\[4\] 1.052e-04
*END

*R_NET o_Z\[3\] 1.364e-02
*DRIVER o_Z_reg_3_:Q
*CELL fd1eqd1_hd
*C2_R1_C1 6.820e-03 7.710e-03 6.820e-03 
*LOADS
*RC o_Z\[3\] 1.052e-04
*END

*R_NET o_Z\[2\] 1.364e-02
*DRIVER o_Z_reg_2_:Q
*CELL fd1eqd1_hd
*C2_R1_C1 6.820e-03 7.710e-03 6.820e-03 
*LOADS
*RC o_Z\[2\] 1.052e-04
*END

*R_NET o_Z\[1\] 1.364e-02
*DRIVER o_Z_reg_1_:Q
*CELL fd1eqd1_hd
*C2_R1_C1 6.820e-03 7.710e-03 6.820e-03 
*LOADS
*RC o_Z\[1\] 1.052e-04
*END

*R_NET o_Z\[0\] 1.364e-02
*DRIVER o_Z_reg_0_:Q
*CELL fd1eqd1_hd
*C2_R1_C1 6.820e-03 7.710e-03 6.820e-03 
*LOADS
*RC o_Z\[0\] 1.052e-04
*END

*R_NET o_Z_STB 2.038e-02
*DRIVER o_Z_STB_reg:Q
*CELL fds2eqd1_hd
*C2_R1_C1 1.019e-02 9.910e-03 1.019e-02 
*LOADS
*RC U247:B 2.020e-04
*RC o_Z_STB 2.020e-04
*END

*R_NET i_Z_ACK 5.340e-03
*DRIVER i_Z_ACK
*CELL NULL
*C2_R1_C1 2.670e-03 7.710e-03 2.670e-03 
*LOADS
*RC U247:A 4.117e-05
*END

*R_NET i_CLK 5.862e-01
*DRIVER i_CLK
*CELL NULL
*C2_R1_C1 2.931e-01 0.000e+00 2.931e-01 
*LOADS
*RC a_m_reg_17_:CK 0.000e+00
*RC a_m_reg_18_:CK 0.000e+00
*RC a_m_reg_19_:CK 0.000e+00
*RC a_m_reg_7_:CK 0.000e+00
*RC a_m_reg_10_:CK 0.000e+00
*RC a_m_reg_11_:CK 0.000e+00
*RC a_m_reg_12_:CK 0.000e+00
*RC a_m_reg_13_:CK 0.000e+00
*RC a_m_reg_16_:CK 0.000e+00
*RC a_m_reg_20_:CK 0.000e+00
*RC a_m_reg_15_:CK 0.000e+00
*RC a_m_reg_21_:CK 0.000e+00
*RC a_m_reg_14_:CK 0.000e+00
*RC o_Z_reg_22_:CK 0.000e+00
*RC z_reg_22_:CK 0.000e+00
*RC o_Z_reg_31_:CK 0.000e+00
*RC z_reg_31_:CK 0.000e+00
*RC o_Z_reg_0_:CK 0.000e+00
*RC z_reg_0_:CK 0.000e+00
*RC o_Z_reg_1_:CK 0.000e+00
*RC z_reg_1_:CK 0.000e+00
*RC o_Z_reg_2_:CK 0.000e+00
*RC z_reg_2_:CK 0.000e+00
*RC o_Z_reg_3_:CK 0.000e+00
*RC z_reg_3_:CK 0.000e+00
*RC o_Z_reg_4_:CK 0.000e+00
*RC z_reg_4_:CK 0.000e+00
*RC o_Z_reg_5_:CK 0.000e+00
*RC z_reg_5_:CK 0.000e+00
*RC o_Z_reg_6_:CK 0.000e+00
*RC z_reg_6_:CK 0.000e+00
*RC o_Z_reg_7_:CK 0.000e+00
*RC z_reg_7_:CK 0.000e+00
*RC o_Z_reg_8_:CK 0.000e+00
*RC z_reg_8_:CK 0.000e+00
*RC o_Z_reg_9_:CK 0.000e+00
*RC z_reg_9_:CK 0.000e+00
*RC o_Z_reg_10_:CK 0.000e+00
*RC z_reg_10_:CK 0.000e+00
*RC o_Z_reg_11_:CK 0.000e+00
*RC z_reg_11_:CK 0.000e+00
*RC o_Z_reg_12_:CK 0.000e+00
*RC z_reg_12_:CK 0.000e+00
*RC o_Z_reg_13_:CK 0.000e+00
*RC z_reg_13_:CK 0.000e+00
*RC o_Z_reg_14_:CK 0.000e+00
*RC z_reg_14_:CK 0.000e+00
*RC o_Z_reg_15_:CK 0.000e+00
*RC z_reg_15_:CK 0.000e+00
*RC o_Z_reg_16_:CK 0.000e+00
*RC z_reg_16_:CK 0.000e+00
*RC o_Z_reg_17_:CK 0.000e+00
*RC z_reg_17_:CK 0.000e+00
*RC o_Z_reg_18_:CK 0.000e+00
*RC z_reg_18_:CK 0.000e+00
*RC o_Z_reg_19_:CK 0.000e+00
*RC z_reg_19_:CK 0.000e+00
*RC o_Z_reg_20_:CK 0.000e+00
*RC z_reg_20_:CK 0.000e+00
*RC o_Z_reg_21_:CK 0.000e+00
*RC z_reg_21_:CK 0.000e+00
*RC o_Z_reg_23_:CK 0.000e+00
*RC z_reg_23_:CK 0.000e+00
*RC o_Z_reg_24_:CK 0.000e+00
*RC z_reg_24_:CK 0.000e+00
*RC o_Z_reg_25_:CK 0.000e+00
*RC z_reg_25_:CK 0.000e+00
*RC o_Z_reg_26_:CK 0.000e+00
*RC z_reg_26_:CK 0.000e+00
*RC o_Z_reg_27_:CK 0.000e+00
*RC z_reg_27_:CK 0.000e+00
*RC o_Z_reg_28_:CK 0.000e+00
*RC z_reg_28_:CK 0.000e+00
*RC o_Z_reg_29_:CK 0.000e+00
*RC z_reg_29_:CK 0.000e+00
*RC o_Z_reg_30_:CK 0.000e+00
*RC z_reg_30_:CK 0.000e+00
*RC sticky_reg:CK 0.000e+00
*RC z_e_reg_8_:CK 0.000e+00
*RC z_e_reg_7_:CK 0.000e+00
*RC z_e_reg_6_:CK 0.000e+00
*RC z_e_reg_5_:CK 0.000e+00
*RC z_e_reg_4_:CK 0.000e+00
*RC z_e_reg_3_:CK 0.000e+00
*RC z_e_reg_2_:CK 0.000e+00
*RC z_e_reg_1_:CK 0.000e+00
*RC z_e_reg_9_:CK 0.000e+00
*RC round_bit_reg:CK 0.000e+00
*RC guard_reg:CK 0.000e+00
*RC z_m_reg_6_:CK 0.000e+00
*RC z_m_reg_7_:CK 0.000e+00
*RC z_m_reg_8_:CK 0.000e+00
*RC z_m_reg_9_:CK 0.000e+00
*RC z_m_reg_10_:CK 0.000e+00
*RC z_m_reg_11_:CK 0.000e+00
*RC z_m_reg_12_:CK 0.000e+00
*RC z_m_reg_13_:CK 0.000e+00
*RC z_m_reg_14_:CK 0.000e+00
*RC z_m_reg_15_:CK 0.000e+00
*RC z_m_reg_16_:CK 0.000e+00
*RC z_m_reg_17_:CK 0.000e+00
*RC z_m_reg_18_:CK 0.000e+00
*RC z_m_reg_19_:CK 0.000e+00
*RC z_m_reg_20_:CK 0.000e+00
*RC z_m_reg_21_:CK 0.000e+00
*RC z_m_reg_22_:CK 0.000e+00
*RC z_m_reg_23_:CK 0.000e+00
*RC product_reg_49_:CK 0.000e+00
*RC product_reg_48_:CK 0.000e+00
*RC product_reg_47_:CK 0.000e+00
*RC product_reg_46_:CK 0.000e+00
*RC product_reg_45_:CK 0.000e+00
*RC product_reg_44_:CK 0.000e+00
*RC product_reg_43_:CK 0.000e+00
*RC product_reg_42_:CK 0.000e+00
*RC product_reg_41_:CK 0.000e+00
*RC product_reg_40_:CK 0.000e+00
*RC product_reg_39_:CK 0.000e+00
*RC product_reg_38_:CK 0.000e+00
*RC product_reg_37_:CK 0.000e+00
*RC product_reg_36_:CK 0.000e+00
*RC product_reg_35_:CK 0.000e+00
*RC product_reg_34_:CK 0.000e+00
*RC product_reg_33_:CK 0.000e+00
*RC product_reg_32_:CK 0.000e+00
*RC product_reg_31_:CK 0.000e+00
*RC product_reg_30_:CK 0.000e+00
*RC product_reg_29_:CK 0.000e+00
*RC product_reg_28_:CK 0.000e+00
*RC product_reg_27_:CK 0.000e+00
*RC product_reg_26_:CK 0.000e+00
*RC product_reg_25_:CK 0.000e+00
*RC product_reg_24_:CK 0.000e+00
*RC product_reg_23_:CK 0.000e+00
*RC product_reg_22_:CK 0.000e+00
*RC product_reg_21_:CK 0.000e+00
*RC product_reg_20_:CK 0.000e+00
*RC product_reg_19_:CK 0.000e+00
*RC product_reg_18_:CK 0.000e+00
*RC product_reg_17_:CK 0.000e+00
*RC product_reg_16_:CK 0.000e+00
*RC product_reg_15_:CK 0.000e+00
*RC product_reg_14_:CK 0.000e+00
*RC product_reg_13_:CK 0.000e+00
*RC product_reg_12_:CK 0.000e+00
*RC product_reg_11_:CK 0.000e+00
*RC product_reg_10_:CK 0.000e+00
*RC product_reg_9_:CK 0.000e+00
*RC product_reg_8_:CK 0.000e+00
*RC product_reg_7_:CK 0.000e+00
*RC product_reg_6_:CK 0.000e+00
*RC product_reg_5_:CK 0.000e+00
*RC product_reg_4_:CK 0.000e+00
*RC product_reg_3_:CK 0.000e+00
*RC product_reg_2_:CK 0.000e+00
*RC a_e_reg_2_:CK 0.000e+00
*RC a_e_reg_1_:CK 0.000e+00
*RC a_e_reg_0_:CK 0.000e+00
*RC a_e_reg_9_:CK 0.000e+00
*RC b_e_reg_3_:CK 0.000e+00
*RC b_e_reg_2_:CK 0.000e+00
*RC b_e_reg_1_:CK 0.000e+00
*RC b_e_reg_0_:CK 0.000e+00
*RC b_m_reg_16_:CK 0.000e+00
*RC b_m_reg_15_:CK 0.000e+00
*RC b_m_reg_13_:CK 0.000e+00
*RC b_m_reg_12_:CK 0.000e+00
*RC b_m_reg_10_:CK 0.000e+00
*RC b_m_reg_9_:CK 0.000e+00
*RC b_m_reg_7_:CK 0.000e+00
*RC b_m_reg_6_:CK 0.000e+00
*RC b_m_reg_4_:CK 0.000e+00
*RC b_m_reg_3_:CK 0.000e+00
*RC b_m_reg_1_:CK 0.000e+00
*RC b_m_reg_0_:CK 0.000e+00
*RC a_reg_0_:CK 0.000e+00
*RC a_reg_1_:CK 0.000e+00
*RC a_reg_2_:CK 0.000e+00
*RC a_reg_3_:CK 0.000e+00
*RC a_reg_4_:CK 0.000e+00
*RC a_reg_5_:CK 0.000e+00
*RC a_reg_6_:CK 0.000e+00
*RC a_reg_7_:CK 0.000e+00
*RC a_reg_8_:CK 0.000e+00
*RC a_reg_9_:CK 0.000e+00
*RC a_reg_10_:CK 0.000e+00
*RC a_reg_11_:CK 0.000e+00
*RC a_reg_12_:CK 0.000e+00
*RC a_reg_13_:CK 0.000e+00
*RC a_reg_14_:CK 0.000e+00
*RC a_reg_15_:CK 0.000e+00
*RC a_reg_16_:CK 0.000e+00
*RC a_reg_17_:CK 0.000e+00
*RC a_reg_18_:CK 0.000e+00
*RC a_reg_19_:CK 0.000e+00
*RC a_reg_20_:CK 0.000e+00
*RC a_reg_21_:CK 0.000e+00
*RC a_reg_22_:CK 0.000e+00
*RC a_reg_23_:CK 0.000e+00
*RC a_reg_24_:CK 0.000e+00
*RC a_reg_25_:CK 0.000e+00
*RC a_reg_26_:CK 0.000e+00
*RC a_reg_27_:CK 0.000e+00
*RC a_reg_28_:CK 0.000e+00
*RC a_reg_29_:CK 0.000e+00
*RC a_reg_30_:CK 0.000e+00
*RC z_s_reg:CK 0.000e+00
*RC a_s_reg:CK 0.000e+00
*RC a_reg_31_:CK 0.000e+00
*RC b_reg_0_:CK 0.000e+00
*RC b_reg_1_:CK 0.000e+00
*RC b_reg_2_:CK 0.000e+00
*RC b_reg_3_:CK 0.000e+00
*RC b_reg_4_:CK 0.000e+00
*RC b_reg_5_:CK 0.000e+00
*RC b_reg_6_:CK 0.000e+00
*RC b_reg_7_:CK 0.000e+00
*RC b_reg_8_:CK 0.000e+00
*RC b_reg_9_:CK 0.000e+00
*RC b_reg_10_:CK 0.000e+00
*RC b_reg_11_:CK 0.000e+00
*RC b_reg_12_:CK 0.000e+00
*RC b_reg_13_:CK 0.000e+00
*RC b_reg_14_:CK 0.000e+00
*RC b_reg_15_:CK 0.000e+00
*RC b_reg_16_:CK 0.000e+00
*RC b_reg_17_:CK 0.000e+00
*RC b_reg_18_:CK 0.000e+00
*RC b_reg_19_:CK 0.000e+00
*RC b_reg_20_:CK 0.000e+00
*RC b_reg_21_:CK 0.000e+00
*RC b_reg_22_:CK 0.000e+00
*RC b_reg_23_:CK 0.000e+00
*RC b_reg_24_:CK 0.000e+00
*RC b_reg_25_:CK 0.000e+00
*RC b_reg_26_:CK 0.000e+00
*RC b_reg_27_:CK 0.000e+00
*RC b_reg_28_:CK 0.000e+00
*RC b_reg_29_:CK 0.000e+00
*RC b_reg_30_:CK 0.000e+00
*RC b_reg_31_:CK 0.000e+00
*RC b_e_reg_4_:CK 0.000e+00
*RC b_e_reg_5_:CK 0.000e+00
*RC b_e_reg_6_:CK 0.000e+00
*RC b_e_reg_7_:CK 0.000e+00
*RC b_m_reg_17_:CK 0.000e+00
*RC b_m_reg_5_:CK 0.000e+00
*RC b_m_reg_14_:CK 0.000e+00
*RC b_m_reg_8_:CK 0.000e+00
*RC b_m_reg_20_:CK 0.000e+00
*RC b_m_reg_11_:CK 0.000e+00
*RC b_m_reg_2_:CK 0.000e+00
*RC a_m_reg_23_:CK 0.000e+00
*RC a_m_reg_22_:CK 0.000e+00
*RC a_e_reg_3_:CK 0.000e+00
*RC a_e_reg_4_:CK 0.000e+00
*RC a_e_reg_5_:CK 0.000e+00
*RC a_e_reg_6_:CK 0.000e+00
*RC a_e_reg_7_:CK 0.000e+00
*RC a_e_reg_8_:CK 0.000e+00
*RC z_m_reg_5_:CK 0.000e+00
*RC z_m_reg_4_:CK 0.000e+00
*RC z_m_reg_3_:CK 0.000e+00
*RC z_m_reg_2_:CK 0.000e+00
*RC z_m_reg_1_:CK 0.000e+00
*RC z_m_reg_0_:CK 0.000e+00
*RC b_m_reg_18_:CK 0.000e+00
*RC b_m_reg_19_:CK 0.000e+00
*RC b_m_reg_21_:CK 0.000e+00
*RC b_m_reg_22_:CK 0.000e+00
*RC b_m_reg_23_:CK 0.000e+00
*RC b_s_reg:CK 0.000e+00
*RC b_e_reg_8_:CK 0.000e+00
*RC b_e_reg_9_:CK 0.000e+00
*RC state_reg_0_:CK 0.000e+00
*RC state_reg_1_:CK 0.000e+00
*RC state_reg_2_:CK 0.000e+00
*RC state_reg_3_:CK 0.000e+00
*RC o_Z_STB_reg:CK 0.000e+00
*RC o_AB_ACK_reg:CK 0.000e+00
*RC z_e_reg_0_:CK 0.000e+00
*RC a_m_reg_9_:CK 0.000e+00
*RC a_m_reg_8_:CK 0.000e+00
*RC a_m_reg_6_:CK 0.000e+00
*RC a_m_reg_5_:CK 0.000e+00
*RC a_m_reg_4_:CK 0.000e+00
*RC a_m_reg_3_:CK 0.000e+00
*RC a_m_reg_2_:CK 0.000e+00
*RC a_m_reg_1_:CK 0.000e+00
*RC a_m_reg_0_:CK 0.000e+00
*END

*R_NET state\[3\] 2.913e-02
*DRIVER state_reg_3_:Q
*CELL fds2eqd1_hd
*C2_R1_C1 1.457e-02 1.718e-02 1.457e-02 
*LOADS
*RC U217:A 5.005e-04
*RC U225:B 5.005e-04
*RC U525:A 5.005e-04
*RC U526:B 5.005e-04
*RC U535:B 5.005e-04
*END

*R_NET state\[2\] 3.799e-02
*DRIVER state_reg_2_:Q
*CELL fds2eqd1_hd
*C2_R1_C1 1.900e-02 1.922e-02 1.900e-02 
*LOADS
*RC U189:A 7.302e-04
*RC U214:A 7.302e-04
*RC U215:B 7.302e-04
*RC U218:AN 7.302e-04
*RC U298:A 7.302e-04
*RC U526:A 7.302e-04
*END

*R_NET state\[1\] 3.577e-02
*DRIVER state_reg_1_:Q
*CELL fds2eqd1_hd
*C2_R1_C1 1.788e-02 1.922e-02 1.788e-02 
*LOADS
*RC U189:B 6.875e-04
*RC U215:A 6.875e-04
*RC U218:B 6.875e-04
*RC U332:A 6.875e-04
*RC U530:B 6.875e-04
*RC U531:A 6.875e-04
*END

*R_NET state\[0\] 2.805e-02
*DRIVER state_reg_0_:Q
*CELL fds2eqd1_hd
*C2_R1_C1 1.402e-02 1.718e-02 1.402e-02 
*LOADS
*RC U212:A 4.819e-04
*RC U225:A 4.819e-04
*RC U526:C 4.819e-04
*RC U535:A 4.819e-04
*RC U539:B 4.819e-04
*END

*R_NET a\[31\] 4.640e-03
*DRIVER a_reg_31_:Q
*CELL fd1eqd1_hd
*C2_R1_C1 2.320e-03 7.710e-03 2.320e-03 
*LOADS
*RC a_s_reg:D 3.577e-05
*END

*R_NET a\[30\] 4.920e-03
*DRIVER a_reg_30_:Q
*CELL fd1eqd1_hd
*C2_R1_C1 2.460e-03 7.710e-03 2.460e-03 
*LOADS
*RC U228:B 3.793e-05
*END

*R_NET a\[29\] 4.920e-03
*DRIVER a_reg_29_:Q
*CELL fd1eqd1_hd
*C2_R1_C1 2.460e-03 7.710e-03 2.460e-03 
*LOADS
*RC U207:B 3.793e-05
*END

*R_NET a\[28\] 4.920e-03
*DRIVER a_reg_28_:Q
*CELL fd1eqd1_hd
*C2_R1_C1 2.460e-03 7.710e-03 2.460e-03 
*LOADS
*RC U199:B 3.793e-05
*END

*R_NET a\[27\] 4.920e-03
*DRIVER a_reg_27_:Q
*CELL fd1eqd1_hd
*C2_R1_C1 2.460e-03 7.710e-03 2.460e-03 
*LOADS
*RC U201:B 3.793e-05
*END

*R_NET a\[26\] 4.920e-03
*DRIVER a_reg_26_:Q
*CELL fd1eqd1_hd
*C2_R1_C1 2.460e-03 7.710e-03 2.460e-03 
*LOADS
*RC U204:B 3.793e-05
*END

*R_NET a\[25\] 4.920e-03
*DRIVER a_reg_25_:Q
*CELL fd1eqd1_hd
*C2_R1_C1 2.460e-03 7.710e-03 2.460e-03 
*LOADS
*RC U202:B 3.793e-05
*END

*R_NET a\[24\] 4.920e-03
*DRIVER a_reg_24_:Q
*CELL fd1eqd1_hd
*C2_R1_C1 2.460e-03 7.710e-03 2.460e-03 
*LOADS
*RC U206:B 3.793e-05
*END

*R_NET a\[23\] 4.920e-03
*DRIVER a_reg_23_:Q
*CELL fd1eqd1_hd
*C2_R1_C1 2.460e-03 7.710e-03 2.460e-03 
*LOADS
*RC U227:B 3.793e-05
*END

*R_NET a\[22\] 4.920e-03
*DRIVER a_reg_22_:Q
*CELL fd1eqd1_hd
*C2_R1_C1 2.460e-03 7.710e-03 2.460e-03 
*LOADS
*RC U324:B 3.793e-05
*END

*R_NET a\[21\] 4.920e-03
*DRIVER a_reg_21_:Q
*CELL fd1eqd1_hd
*C2_R1_C1 2.460e-03 7.710e-03 2.460e-03 
*LOADS
*RC U253:B 3.793e-05
*END

*R_NET a\[20\] 4.920e-03
*DRIVER a_reg_20_:Q
*CELL fd1eqd1_hd