*SPEF "IEEE 1481-1999"
*DESIGN "i2c_master"
*DATE "Thu May 14 18:08:28 2020"
*VENDOR "SYNOPSYS INC"
*PROGRAM "Synopsys Design Compiler cmos"
*VERSION "F-2011.09-SP5-3"
*DESIGN_FLOW "SYNTHESIS"
*DIVIDER /
*DELIMITER :
*BUS_DELIMITER []
*T_UNIT 1.0 NS
*C_UNIT 1.0 PF
*R_UNIT 1.0 KOHM
*L_UNIT 1.0 HENRY

*PORTS

i_CLK I *L 0.000e+00 *S 0.000e+00 0.000e+00 
i_RSTN I *L 0.000e+00 *S 0.000e+00 0.000e+00 
cmd_start I *L 0.000e+00 *S 0.000e+00 0.000e+00 
cmd_read I *L 0.000e+00 *S 0.000e+00 0.000e+00 
cmd_write I *L 0.000e+00 *S 0.000e+00 0.000e+00 
cmd_write_multiple I *L 0.000e+00 *S 0.000e+00 0.000e+00 
cmd_stop I *L 0.000e+00 *S 0.000e+00 0.000e+00 
cmd_valid I *L 0.000e+00 *S 0.000e+00 0.000e+00 
cmd_ready O *L 1.035e-02 *S 2.633e-01 1.988e-01 
data_in\[7\] I *L 0.000e+00 *S 0.000e+00 0.000e+00 
data_in\[6\] I *L 0.000e+00 *S 0.000e+00 0.000e+00 
data_in\[5\] I *L 0.000e+00 *S 0.000e+00 0.000e+00 
data_in\[4\] I *L 0.000e+00 *S 0.000e+00 0.000e+00 
data_in\[3\] I *L 0.000e+00 *S 0.000e+00 0.000e+00 
data_in\[2\] I *L 0.000e+00 *S 0.000e+00 0.000e+00 
data_in\[1\] I *L 0.000e+00 *S 0.000e+00 0.000e+00 
data_in\[0\] I *L 0.000e+00 *S 0.000e+00 0.000e+00 
data_in_valid I *L 0.000e+00 *S 0.000e+00 0.000e+00 
data_in_ready O *L 1.035e-02 *S 2.161e-01 1.698e-01 
data_in_last I *L 0.000e+00 *S 0.000e+00 0.000e+00 
data_out\[7\] O *L 1.035e-02 *S 1.566e-01 1.312e-01 
data_out\[6\] O *L 1.035e-02 *S 1.566e-01 1.312e-01 
data_out\[5\] O *L 1.035e-02 *S 1.566e-01 1.312e-01 
data_out\[4\] O *L 1.035e-02 *S 1.566e-01 1.312e-01 
data_out\[3\] O *L 1.035e-02 *S 1.566e-01 1.312e-01 
data_out\[2\] O *L 1.035e-02 *S 1.566e-01 1.312e-01 
data_out\[1\] O *L 1.035e-02 *S 1.566e-01 1.312e-01 
data_out\[0\] O *L 1.035e-02 *S 1.566e-01 1.312e-01 
data_out_valid O *L 1.035e-02 *S 2.089e-01 1.654e-01 
data_out_ready I *L 0.000e+00 *S 0.000e+00 0.000e+00 
data_out_last O *L 1.035e-02 *S 1.566e-01 1.312e-01 
scl_i I *L 0.000e+00 *S 0.000e+00 0.000e+00 
scl_o O *L 1.035e-02 *S 2.536e-01 1.929e-01 
scl_t O *L 1.035e-02 *S 1.130e-01 7.848e-02 
sda_i I *L 0.000e+00 *S 0.000e+00 0.000e+00 
sda_o O *L 1.035e-02 *S 1.611e-01 1.343e-01 
sda_t O *L 1.035e-02 *S 2.148e-01 1.356e-01 
busy O *L 1.035e-02 *S 1.246e-01 1.083e-01 
bus_control O *L 1.035e-02 *S 1.556e-01 1.304e-01 
bus_active O *L 1.035e-02 *S 2.145e-01 1.688e-01 
missed_ack O *L 1.035e-02 *S 1.246e-01 1.083e-01 

*R_NET i_CLK 2.691e-01
*DRIVER i_CLK
*CELL NULL
*C2_R1_C1 1.345e-01 7.031e-02 1.345e-01 
*LOADS
*RC phy_rx_data_reg_reg:CK 1.892e-02
*RC sda_i_reg_reg:CK 1.892e-02
*RC last_sda_i_reg_reg:CK 1.892e-02
*RC bus_active_reg_reg:CK 1.892e-02
*RC busy_reg_reg:CK 1.892e-02
*RC missed_ack_reg_reg:CK 1.892e-02
*RC cmd_ready_reg_reg:CK 1.892e-02
*RC data_out_valid_reg_reg:CK 1.892e-02
*RC data_in_ready_reg_reg:CK 1.892e-02
*RC state_reg_reg_2_:CK 1.892e-02
*RC state_reg_reg_1_:CK 1.892e-02
*RC state_reg_reg_3_:CK 1.892e-02
*RC bit_count_reg_reg_0_:CK 1.892e-02
*RC bit_count_reg_reg_3_:CK 1.892e-02
*RC mode_write_multiple_reg_reg:CK 1.892e-02
*RC mode_stop_reg_reg:CK 1.892e-02
*RC mode_read_reg_reg:CK 1.892e-02
*RC state_reg_reg_0_:CK 1.892e-02
*RC bit_count_reg_reg_1_:CK 1.892e-02
*RC bit_count_reg_reg_2_:CK 1.892e-02
*RC data_out_reg_reg_7_:CK 1.892e-02
*RC data_out_reg_reg_6_:CK 1.892e-02
*RC data_out_reg_reg_5_:CK 1.892e-02
*RC data_out_reg_reg_4_:CK 1.892e-02
*RC data_out_reg_reg_3_:CK 1.892e-02
*RC data_out_reg_reg_2_:CK 1.892e-02
*RC data_out_reg_reg_1_:CK 1.892e-02
*RC data_out_reg_reg_0_:CK 1.892e-02
*RC data_out_last_reg_reg:CK 1.892e-02
*RC last_reg_reg:CK 1.892e-02
*RC data_reg_reg_0_:CK 1.892e-02
*RC data_reg_reg_7_:CK 1.892e-02
*RC data_reg_reg_6_:CK 1.892e-02
*RC data_reg_reg_5_:CK 1.892e-02
*RC data_reg_reg_4_:CK 1.892e-02
*RC data_reg_reg_3_:CK 1.892e-02
*RC data_reg_reg_2_:CK 1.892e-02
*RC data_reg_reg_1_:CK 1.892e-02
*RC delay_scl_reg_reg:CK 1.892e-02
*RC sda_o_reg_reg:CK 1.892e-02
*RC delay_reg_reg_2_:CK 1.892e-02
*RC delay_reg_reg_0_:CK 1.892e-02
*RC scl_o_reg_reg:CK 1.892e-02
*RC delay_reg_reg_16_:CK 1.892e-02
*RC delay_reg_reg_15_:CK 1.892e-02
*RC delay_reg_reg_14_:CK 1.892e-02
*RC delay_reg_reg_13_:CK 1.892e-02
*RC delay_reg_reg_12_:CK 1.892e-02
*RC delay_reg_reg_11_:CK 1.892e-02
*RC delay_reg_reg_10_:CK 1.892e-02
*RC delay_reg_reg_9_:CK 1.892e-02
*RC delay_reg_reg_8_:CK 1.892e-02
*RC delay_reg_reg_7_:CK 1.892e-02
*RC delay_reg_reg_1_:CK 1.892e-02
*RC bus_control_reg_reg:CK 1.892e-02
*RC phy_state_reg_reg_3_:CK 1.892e-02
*RC phy_state_reg_reg_2_:CK 1.892e-02
*RC phy_state_reg_reg_1_:CK 1.892e-02
*RC phy_state_reg_reg_0_:CK 1.892e-02
*RC delay_reg_reg_5_:CK 1.892e-02
*RC delay_reg_reg_6_:CK 1.892e-02
*RC delay_reg_reg_4_:CK 1.892e-02
*RC delay_reg_reg_3_:CK 1.892e-02
*RC scl_i_reg_reg:CK 1.892e-02
*END

*R_NET cmd_start 1.050e-02
*DRIVER cmd_start
*CELL NULL
*C2_R1_C1 5.250e-03 9.100e-03 5.250e-03 
*LOADS
*RC U519:B 9.555e-05
*RC U535:B 9.555e-05
*END

*R_NET cmd_read 9.960e-03
*DRIVER cmd_read
*CELL NULL
*C2_R1_C1 4.980e-03 9.100e-03 4.980e-03 
*LOADS
*RC U491:A 9.064e-05
*RC U519:A 9.064e-05
*END

*R_NET cmd_write 1.026e-02
*DRIVER cmd_write
*CELL NULL
*C2_R1_C1 5.130e-03 9.100e-03 5.130e-03 
*LOADS
*RC U516:A 9.337e-05
*RC U535:A 9.337e-05
*END

*R_NET cmd_write_multiple 1.008e-02
*DRIVER cmd_write_multiple
*CELL NULL
*C2_R1_C1 5.040e-03 9.100e-03 5.040e-03 
*LOADS
*RC U516:B 9.173e-05
*RC U638:A 9.173e-05
*END

*R_NET cmd_stop 1.007e-02
*DRIVER cmd_stop
*CELL NULL
*C2_R1_C1 5.035e-03 9.100e-03 5.035e-03 
*LOADS
*RC U531:A 9.164e-05
*RC U533:B 9.164e-05
*END

*R_NET cmd_valid 1.001e-02
*DRIVER cmd_valid
*CELL NULL
*C2_R1_C1 5.005e-03 9.100e-03 5.005e-03 
*LOADS
*RC U365:B 9.109e-05
*RC U517:C 9.109e-05
*END

*R_NET cmd_ready 3.067e-02
*DRIVER cmd_ready_reg_reg:Q
*CELL fd1qd1_hd
*C2_R1_C1 1.534e-02 1.094e-02 1.534e-02 
*LOADS
*RC U363:A 3.355e-04
*RC U517:D 3.355e-04
*RC U617:A 3.355e-04
*RC cmd_ready 3.355e-04
*END

*R_NET data_in\[7\] 5.900e-03
*DRIVER data_in\[7\]
*CELL NULL
*C2_R1_C1 2.950e-03 7.370e-03 2.950e-03 
*LOADS
*RC U672:D 4.348e-05
*END

*R_NET data_in\[6\] 5.900e-03
*DRIVER data_in\[6\]
*CELL NULL
*C2_R1_C1 2.950e-03 7.370e-03 2.950e-03 
*LOADS
*RC U670:D 4.348e-05
*END

*R_NET data_in\[5\] 5.900e-03
*DRIVER data_in\[5\]
*CELL NULL
*C2_R1_C1 2.950e-03 7.370e-03 2.950e-03 
*LOADS
*RC U668:D 4.348e-05
*END

*R_NET data_in\[4\] 5.900e-03
*DRIVER data_in\[4\]
*CELL NULL
*C2_R1_C1 2.950e-03 7.370e-03 2.950e-03 
*LOADS
*RC U666:D 4.348e-05
*END

*R_NET data_in\[3\] 5.900e-03
*DRIVER data_in\[3\]
*CELL NULL
*C2_R1_C1 2.950e-03 7.370e-03 2.950e-03 
*LOADS
*RC U664:D 4.348e-05
*END

*R_NET data_in\[2\] 5.900e-03
*DRIVER data_in\[2\]
*CELL NULL
*C2_R1_C1 2.950e-03 7.370e-03 2.950e-03 
*LOADS
*RC U662:D 4.348e-05
*END

*R_NET data_in\[1\] 5.900e-03
*DRIVER data_in\[1\]
*CELL NULL
*C2_R1_C1 2.950e-03 7.370e-03 2.950e-03 
*LOADS
*RC U660:D 4.348e-05
*END

*R_NET data_in\[0\] 5.900e-03
*DRIVER data_in\[0\]
*CELL NULL
*C2_R1_C1 2.950e-03 7.370e-03 2.950e-03 
*LOADS
*RC U658:D 4.348e-05
*END

*R_NET data_in_valid 1.087e-02
*DRIVER data_in_valid
*CELL NULL
*C2_R1_C1 5.435e-03 9.100e-03 5.435e-03 
*LOADS
*RC U514:B 9.892e-05
*RC U538:D 9.892e-05
*END

*R_NET data_in_ready 2.476e-02
*DRIVER data_in_ready_reg_reg:Q
*CELL fd1qd1_hd
*C2_R1_C1 1.238e-02 9.460e-03 1.238e-02 
*LOADS
*RC U514:A 2.342e-04
*RC U538:C 2.342e-04
*RC data_in_ready 2.342e-04
*END

*R_NET data_in_last 5.190e-03
*DRIVER data_in_last
*CELL NULL
*C2_R1_C1 2.595e-03 7.370e-03 2.595e-03 
*LOADS
*RC U420:B 3.825e-05
*END

*R_NET data_out\[7\] 1.740e-02
*DRIVER data_out_reg_reg_7_:Q
*CELL fd1qd1_hd
*C2_R1_C1 8.700e-03 9.100e-03 8.700e-03 
*LOADS
*RC U441:C 1.583e-04
*RC data_out\[7\] 1.583e-04
*END

*R_NET data_out\[6\] 1.740e-02
*DRIVER data_out_reg_reg_6_:Q
*CELL fd1qd1_hd
*C2_R1_C1 8.700e-03 9.100e-03 8.700e-03 
*LOADS
*RC U435:C 1.583e-04
*RC data_out\[6\] 1.583e-04
*END

*R_NET data_out\[5\] 1.740e-02
*DRIVER data_out_reg_reg_5_:Q
*CELL fd1qd1_hd
*C2_R1_C1 8.700e-03 9.100e-03 8.700e-03 
*LOADS
*RC U436:C 1.583e-04
*RC data_out\[5\] 1.583e-04
*END

*R_NET data_out\[4\] 1.740e-02
*DRIVER data_out_reg_reg_4_:Q
*CELL fd1qd1_hd
*C2_R1_C1 8.700e-03 9.100e-03 8.700e-03 
*LOADS
*RC U443:C 1.583e-04
*RC data_out\[4\] 1.583e-04
*END

*R_NET data_out\[3\] 1.740e-02
*DRIVER data_out_reg_reg_3_:Q
*CELL fd1qd1_hd
*C2_R1_C1 8.700e-03 9.100e-03 8.700e-03 
*LOADS
*RC U437:C 1.583e-04
*RC data_out\[3\] 1.583e-04
*END

*R_NET data_out\[2\] 1.740e-02
*DRIVER data_out_reg_reg_2_:Q
*CELL fd1qd1_hd
*C2_R1_C1 8.700e-03 9.100e-03 8.700e-03 
*LOADS
*RC U440:C 1.583e-04
*RC data_out\[2\] 1.583e-04
*END

*R_NET data_out\[1\] 1.740e-02
*DRIVER data_out_reg_reg_1_:Q
*CELL fd1qd1_hd
*C2_R1_C1 8.700e-03 9.100e-03 8.700e-03 
*LOADS
*RC U442:C 1.583e-04
*RC data_out\[1\] 1.583e-04
*END

*R_NET data_out\[0\] 1.740e-02
*DRIVER data_out_reg_reg_0_:Q
*CELL fd1qd1_hd
*C2_R1_C1 8.700e-03 9.100e-03 8.700e-03 
*LOADS
*RC U438:C 1.583e-04
*RC data_out\[0\] 1.583e-04
*END

*R_NET data_out_valid 2.387e-02
*DRIVER data_out_valid_reg_reg:Q
*CELL fd1qd1_hd
*C2_R1_C1 1.193e-02 9.460e-03 1.193e-02 
*LOADS
*RC U422:B 2.258e-04
*RC U512:A 2.258e-04
*RC data_out_valid 2.258e-04
*END

*R_NET data_out_ready 5.790e-03
*DRIVER data_out_ready
*CELL NULL
*C2_R1_C1 2.895e-03 7.370e-03 2.895e-03 
*LOADS
*RC U318:A 4.267e-05
*END

*R_NET data_out_last 1.740e-02
*DRIVER data_out_last_reg_reg:Q
*CELL fd1qd1_hd
*C2_R1_C1 8.700e-03 9.100e-03 8.700e-03 
*LOADS
*RC U439:C 1.583e-04
*RC data_out_last 1.583e-04
*END

*R_NET scl_i 4.680e-03
*DRIVER scl_i
*CELL NULL
*C2_R1_C1 2.340e-03 7.370e-03 2.340e-03 
*LOADS
*RC scl_i_reg_reg:D 3.449e-05
*END

*R_NET scl_o 2.946e-02
*DRIVER scl_o_reg_reg:Q
*CELL fd1qd1_hd
*C2_R1_C1 1.473e-02 1.094e-02 1.473e-02 
*LOADS
*RC U447:A 3.223e-04
*RC U194:A 3.223e-04
*RC U593:C 3.223e-04
*RC scl_o 3.223e-04
*END

*R_NET sda_i 4.680e-03
*DRIVER sda_i
*CELL NULL
*C2_R1_C1 2.340e-03 7.370e-03 2.340e-03 
*LOADS
*RC sda_i_reg_reg:D 3.449e-05
*END

*R_NET sda_o 1.794e-02
*DRIVER sda_o_reg_reg:Q
*CELL fd1qd1_hd
*C2_R1_C1 8.970e-03 9.100e-03 8.970e-03 
*LOADS
*RC U483:A 1.633e-04
*RC sda_o 1.633e-04
*END

*R_NET sda_t 2.516e-02
*DRIVER U483:Y
*CELL ivd1_hd
*C2_R1_C1 1.258e-02 9.460e-03 1.258e-02 
*LOADS
*RC U590:B 2.380e-04
*RC U206:B 2.380e-04
*RC sda_t 2.380e-04
*END

*R_NET busy 1.350e-02
*DRIVER busy_reg_reg:Q
*CELL fd1qd1_hd
*C2_R1_C1 6.750e-03 7.370e-03 6.750e-03 
*LOADS
*RC busy 9.950e-05
*END

*R_NET bus_control 1.727e-02
*DRIVER bus_control_reg_reg:Q
*CELL fd1qd1_hd
*C2_R1_C1 8.635e-03 9.100e-03 8.635e-03 
*LOADS
*RC bus_control 1.572e-04
*RC U82:C 1.572e-04
*END

*R_NET bus_active 2.456e-02
*DRIVER bus_active_reg_reg:Q
*CELL fd1qd1_hd
*C2_R1_C1 1.228e-02 9.460e-03 1.228e-02 
*LOADS
*RC U485:A 2.323e-04
*RC U613:A 2.323e-04
*RC bus_active 2.323e-04
*END

*R_NET missed_ack 1.350e-02
*DRIVER missed_ack_reg_reg:Q
*CELL fd1qd1_hd
*C2_R1_C1 6.750e-03 7.370e-03 6.750e-03 
*LOADS
*RC missed_ack 9.950e-05
*END

*R_NET scl_i_reg 1.034e-02
*DRIVER scl_i_reg_reg:Q
*CELL fd1qd1_hd
*C2_R1_C1 5.170e-03 9.100e-03 5.170e-03 
*LOADS
*RC U524:C 9.409e-05
*RC U592:A 9.409e-05
*END

*R_NET sda_i_reg 2.086e-02
*DRIVER sda_i_reg_reg:Q
*CELL fd1qd1_hd
*C2_R1_C1 1.043e-02 1.094e-02 1.043e-02 
*LOADS
*RC U389:B 2.282e-04
*RC phy_rx_data_reg_reg:D 2.282e-04
*RC last_sda_i_reg_reg:D 2.282e-04
*RC U524:B 2.282e-04
*END

*R_NET last_sda_i_reg 1.633e-02
*DRIVER last_sda_i_reg_reg:Q
*CELL fd1qd1_hd
*C2_R1_C1 8.165e-03 9.460e-03 8.165e-03 
*LOADS
*RC U389:A 1.545e-04
*RC U524:A 1.545e-04
*RC U308:C 1.545e-04
*END

*R_NET data_reg\[7\] 1.087e-02
*DRIVER data_reg_reg_7_:Q
*CELL fd1qd1_hd
*C2_R1_C1 5.435e-03 9.100e-03 5.435e-03 
*LOADS
*RC U577:D 9.892e-05
*RC U672:A 9.892e-05
*END

*R_NET data_reg\[6\] 2.161e-02
*DRIVER data_reg_reg_6_:Q
*CELL fd1qd1_hd
*C2_R1_C1 1.080e-02 1.094e-02 1.080e-02 
*LOADS
*RC U441:A 2.364e-04
*RC U573:B 2.364e-04
*RC U670:A 2.364e-04
*RC U673:A 2.364e-04
*END

*R_NET data_reg\[5\] 2.133e-02
*DRIVER data_reg_reg_5_:Q
*CELL fd1qd1_hd
*C2_R1_C1 1.066e-02 1.094e-02 1.066e-02 
*LOADS
*RC U435:A 2.334e-04
*RC U570:A 2.334e-04
*RC U668:A 2.334e-04
*RC U671:A 2.334e-04
*END

*R_NET data_reg\[4\] 2.161e-02
*DRIVER data_reg_reg_4_:Q
*CELL fd1qd1_hd
*C2_R1_C1 1.080e-02 1.094e-02 1.080e-02 
*LOADS
*RC U436:A 2.364e-04
*RC U574:B 2.364e-04
*RC U666:A 2.364e-04
*RC U669:A 2.364e-04
*END

*R_NET data_reg\[3\] 2.141e-02
*DRIVER data_reg_reg_3_:Q
*CELL fd1qd1_hd
*C2_R1_C1 1.070e-02 1.094e-02 1.070e-02 
*LOADS
*RC U443:A 2.342e-04
*RC U578:C 2.342e-04
*RC U664:A 2.342e-04
*RC U667:A 2.342e-04
*END

*R_NET data_reg\[2\] 2.164e-02
*DRIVER data_reg_reg_2_:Q
*CELL fd1qd1_hd
*C2_R1_C1 1.082e-02 1.094e-02 1.082e-02 
*LOADS
*RC U437:A 2.367e-04
*RC U573:C 2.367e-04
*RC U662:A 2.367e-04
*RC U665:A 2.367e-04
*END

*R_NET data_reg\[1\] 2.181e-02
*DRIVER data_reg_reg_1_:Q
*CELL fd1qd1_hd
*C2_R1_C1 1.090e-02 1.094e-02 1.090e-02 
*LOADS
*RC U440:A 2.386e-04
*RC U572:B 2.386e-04
*RC U660:A 2.386e-04
*RC U663:A 2.386e-04
*END

*R_NET data_reg\[0\] 2.164e-02
*DRIVER data_reg_reg_0_:Q
*CELL fd1qd1_hd
*C2_R1_C1 1.082e-02 1.094e-02 1.082e-02 
*LOADS
*RC U442:A 2.367e-04
*RC U574:C 2.367e-04
*RC U658:A 2.367e-04
*RC U661:A 2.367e-04
*END

*R_NET last_reg 5.220e-03
*DRIVER last_reg_reg:Q
*CELL fd1qd1_hd
*C2_R1_C1 2.610e-03 7.370e-03 2.610e-03 
*LOADS
*RC U559:A 3.847e-05
*END

*R_NET mode_read_reg 1.591e-02
*DRIVER mode_read_reg_reg:Q
*CELL fd1qd1_hd
*C2_R1_C1 7.955e-03 9.460e-03 7.955e-03 
*LOADS
*RC U391:A 1.505e-04
*RC U479:A 1.505e-04
*RC U584:C 1.505e-04
*END

*R_NET mode_write_multiple_reg 9.630e-03
*DRIVER mode_write_multiple_reg_reg:Q
*CELL fd1qd1_hd
*C2_R1_C1 4.815e-03 9.100e-03 4.815e-03 
*LOADS
*RC U364:B 8.763e-05
*RC U637:A 8.763e-05
*END

*R_NET mode_stop_reg 2.048e-02
*DRIVER mode_stop_reg_reg:Q
*CELL fd1qd1_hd
*C2_R1_C1 1.024e-02 1.094e-02 1.024e-02 
*LOADS
*RC U366:B 2.241e-04
*RC U439:A 2.241e-04
*RC U486:A 2.241e-04
*RC U614:B 2.241e-04
*END

*R_NET bit_count_reg\[3\] 1.592e-02
*DRIVER bit_count_reg_reg_3_:Q
*CELL fd1qd1_hd
*C2_R1_C1 7.960e-03 9.460e-03 7.960e-03 
*LOADS
*RC U464:A 1.506e-04
*RC U545:A 1.506e-04
*RC U583:A 1.506e-04
*END

*R_NET bit_count_reg\[2\] 2.768e-02
*DRIVER bit_count_reg_reg_2_:Q
*CELL fd1qd1_hd
*C2_R1_C1 1.384e-02 1.549e-02 1.384e-02 
*LOADS
*RC U465:A 4.288e-04
*RC U572:A 4.288e-04
*RC U573:A 4.288e-04
*RC U574:A 4.288e-04
*RC U578:A 4.288e-04
*END

*R_NET bit_count_reg\[1\] 3.337e-02
*DRIVER bit_count_reg_reg_1_:Q
*CELL fd1qd1_hd
*C2_R1_C1 1.668e-02 1.674e-02 1.668e-02 
*LOADS
*RC U482:A 5.586e-04
*RC U496:B 5.586e-04
*RC U572:C 5.586e-04
*RC U575:A 5.586e-04
*RC U582:A 5.586e-04
*RC U583:B 5.586e-04
*END

*R_NET bit_count_reg\[0\] 3.250e-02
*DRIVER bit_count_reg_reg_0_:Q
*CELL fd1qd1_hd
*C2_R1_C1 1.625e-02 1.674e-02 1.625e-02 
*LOADS
*RC U432:D 5.440e-04
*RC U496:A 5.440e-04
*RC U571:A 5.440e-04
*RC U577:A 5.440e-04
*RC U582:C 5.440e-04
*RC U628:A 5.440e-04
*END

*R_NET state_reg\[3\] 2.681e-02
*DRIVER state_reg_reg_3_:Q
*CELL fd1qd1_hd
*C2_R1_C1 1.341e-02 1.549e-02 1.341e-02 
*LOADS
*RC U370:A 4.153e-04
*RC U468:A 4.153e-04
*RC U494:B 4.153e-04
*RC U497:B 4.153e-04
*RC U543:C 4.153e-04
*END

*R_NET state_reg\[2\] 2.637e-02
*DRIVER state_reg_reg_2_:Q
*CELL fd1qd1_hd
*C2_R1_C1 1.319e-02 1.549e-02 1.319e-02 
*LOADS
*RC U467:A 4.085e-04
*RC U492:A 4.085e-04
*RC U495:B 4.085e-04
*RC U543:A 4.085e-04
*RC U560:C 4.085e-04
*END

*R_NET state_reg\[1\] 2.290e-02
*DRIVER state_reg_reg_1_:Q
*CELL fd1qd1_hd
*C2_R1_C1 1.145e-02 1.094e-02 1.145e-02 
*LOADS
*RC U469:A 2.505e-04
*RC U492:B 2.505e-04
*RC U525:B 2.505e-04
*RC U526:B 2.505e-04
*END

*R_NET state_reg\[0\] 9.960e-03
*DRIVER state_reg_reg_0_:Q
*CELL fd1qd1_hd
*C2_R1_C1 4.980e-03 9.100e-03 4.980e-03 
*LOADS
*RC U470:A 9.064e-05
*RC U494:A 9.064e-05
*END

*R_NET phy_state_reg\[3\] 3.203e-02
*DRIVER phy_state_reg_reg_3_:Q
*CELL fd1qd1_hd
*C2_R1_C1 1.602e-02 1.674e-02 1.602e-02 
*LOADS
*RC U377:A 5.362e-04
*RC U405:A 5.362e-04
*RC U460:A 5.362e-04
*RC U522:A 5.362e-04
*RC U551:B 5.362e-04
*RC U552:A 5.362e-04
*END

*R_NET phy_state_reg\[2\] 2.163e-02
*DRIVER phy_state_reg_reg_2_:Q
*CELL fd1qd1_hd
*C2_R1_C1 1.082e-02 1.094e-02 1.082e-02 
*LOADS
*RC U378:A 2.366e-04
*RC U398:A 2.366e-04
*RC U487:A 2.366e-04
*RC U489:A 2.366e-04
*END

*R_NET phy_state_reg\[1\] 3.202e-02
*DRIVER phy_state_reg_reg_1_:Q
*CELL fd1qd1_hd
*C2_R1_C1 1.601e-02 1.674e-02 1.601e-02 
*LOADS
*RC U378:B 5.360e-04
*RC U406:A 5.360e-04
*RC U484:A 5.360e-04
*RC U489:B 5.360e-04
*RC U550:A 5.360e-04
*RC U553:A 5.360e-04
*END

*R_NET phy_state_reg\[0\] 1.571e-02
*DRIVER phy_state_reg_reg_0_:Q
*CELL fd1qd1_hd
*C2_R1_C1 7.855e-03 9.460e-03 7.855e-03 
*LOADS
*RC U377:B 1.486e-04
*RC U493:A 1.486e-04
*RC U552:B 1.486e-04
*END

*R_NET phy_rx_data_reg 9.170e-03
*DRIVER phy_rx_data_reg_reg:Q
*CELL fd1eqd1_hd
*C2_R1_C1 4.585e-03 9.100e-03 4.585e-03 
*LOADS
*RC U478:A 8.345e-05
*RC U438:A 8.345e-05
*END

*R_NET delay_reg\[16\] 9.120e-03
*DRIVER delay_reg_reg_16_:Q
*CELL fd1qd1_hd
*C2_R1_C1 4.560e-03 9.100e-03 4.560e-03 
*LOADS
*RC U199:C 8.299e-05
*RC U471:A 8.299e-05
*END

*R_NET delay_reg\[15\] 1.463e-02
*DRIVER delay_reg_reg_15_:Q
*CELL fd1qd1_hd
*C2_R1_C1 7.315e-03 9.460e-03 7.315e-03 
*LOADS
*RC U425:A 1.384e-04
*RC U120:C 1.384e-04
*RC U504:A 1.384e-04
*END

*R_NET delay_reg\[14\] 9.120e-03
*DRIVER delay_reg_reg_14_:Q
*CELL fd1qd1_hd
*C2_R1_C1 4.560e-03 9.100e-03 4.560e-03 
*LOADS
*RC U119:C 8.299e-05
*RC U472:A 8.299e-05
*END

*R_NET delay_reg\[13\] 1.463e-02
*DRIVER delay_reg_reg_13_:Q
*CELL fd1qd1_hd
*C2_R1_C1 7.315e-03 9.460e-03 7.315e-03 
*LOADS
*RC U426:A 1.384e-04
*RC U118:C 1.384e-04
*RC U502:A 1.384e-04
*END

*R_NET delay_reg\[12\] 9.120e-03
*DRIVER delay_reg_reg_12_:Q
*CELL fd1qd1_hd
*C2_R1_C1 4.560e-03 9.100e-03 4.560e-03 
*LOADS
*RC U117:C 8.299e-05
*RC U473:A 8.299e-05
*END

*R_NET delay_reg\[11\] 1.463e-02
*DRIVER delay_reg_reg_11_:Q
*CELL fd1qd1_hd
*C2_R1_C1 7.315e-03 9.460e-03 7.315e-03 
*LOADS
*RC U427:A 1.384e-04
*RC U116:C 1.384e-04
*RC U500:A 1.384e-04
*END

*R_NET delay_reg\[10\] 9.120e-03
*DRIVER delay_reg_reg_10_:Q
*CELL fd1qd1_hd
*C2_R1_C1 4.560e-03 9.100e-03 4.560e-03 
*LOADS
*RC U115:C 8.299e-05
*RC U474:A 8.299e-05
*END

*R_NET delay_reg\[9\] 1.463e-02
*DRIVER delay_reg_reg_9_:Q
*CELL fd1qd1_hd
*C2_R1_C1 7.315e-03 9.460e-03 7.315e-03 
*LOADS
*RC U428:A 1.384e-04
*RC U114:C 1.384e-04
*RC U510:A 1.384e-04
*END

*R_NET delay_reg\[8\] 9.120e-03
*DRIVER delay_reg_reg_8_:Q
*CELL fd1qd1_hd
*C2_R1_C1 4.560e-03 9.100e-03 4.560e-03 
*LOADS
*RC U113:C 8.299e-05
*RC U475:A 8.299e-05
*END

*R_NET delay_reg\[7\] 1.578e-02
*DRIVER delay_reg_reg_7_:Q
*CELL fd1qd1_hd
*C2_R1_C1 7.890e-03 9.460e-03 7.890e-03 
*LOADS
*RC U429:A 1.493e-04
*RC U508:A 1.493e-04
*RC U112:C 1.493e-04
*END

*R_NET delay_reg\[6\] 1.484e-02
*DRIVER delay_reg_reg_6_:Q
*CELL fd1qd1_hd
*C2_R1_C1 7.420e-03 9.460e-03 7.420e-03 
*LOADS
*RC U102:C 1.404e-04
*RC U449:A 1.404e-04
*RC U648:C 1.404e-04
*END

*R_NET delay_reg\[5\] 2.615e-02
*DRIVER delay_reg_reg_5_:Q
*CELL fd1qd1_hd
*C2_R1_C1 1.307e-02 1.549e-02 1.307e-02 
*LOADS
*RC U413:A 4.051e-04
*RC U99:D 4.051e-04
*RC U449:B 4.051e-04
*RC U648:A 4.051e-04
*RC U650:A 4.051e-04
*END

*R_NET delay_reg\[4\] 1.552e-02
*DRIVER delay_reg_reg_4_:Q
*CELL fd1qd1_hd
*C2_R1_C1 7.760e-03 9.460e-03 7.760e-03 
*LOADS
*RC U430:A 1.468e-04
*RC U96:D 1.468e-04
*RC U651:D 1.468e-04
*END

*R_NET delay_reg\[3\] 1.475e-02
*DRIVER delay_reg_reg_3_:Q
*CELL fd1qd1_hd
*C2_R1_C1 7.375e-03 9.460e-03 7.375e-03 
*LOADS
*RC U414:A 1.395e-04
*RC U93:D 1.395e-04
*RC U458:A 1.395e-04
*END

*R_NET delay_reg\[2\] 1.578e-02
*DRIVER delay_reg_reg_2_:Q
*CELL fd1qd1_hd
*C2_R1_C1 7.890e-03 9.460e-03 7.890e-03 
*LOADS
*RC U450:A 1.493e-04
*RC U507:A 1.493e-04
*RC U91:C 1.493e-04
*END

*R_NET delay_reg\[1\] 1.027e-02
*DRIVER delay_reg_reg_1_:Q
*CELL fd1qd1_hd
*C2_R1_C1 5.135e-03 9.100e-03 5.135e-03 
*LOADS
*RC U451:A 9.346e-05
*RC U88:C 9.346e-05
*END

*R_NET delay_reg\[0\] 1.027e-02
*DRIVER delay_reg_reg_0_:Q
*CELL fd1qd1_hd
*C2_R1_C1 5.135e-03 9.100e-03 5.135e-03 
*LOADS
*RC U448:A 9.346e-05
*RC U86:C 9.346e-05
*END

*R_NET delay_scl_reg 9.960e-03
*DRIVER delay_scl_reg_reg:Q
*CELL fd1qd1_hd
*C2_R1_C1 4.980e-03 9.100e-03 4.980e-03 
*LOADS
*RC U424:A 9.064e-05
*RC U431:A 9.064e-05
*END

*R_NET N500 1.644e-02
*DRIVER U448:Y
*CELL ivd1_hd
*C2_R1_C1 8.220e-03 9.460e-03 8.220e-03 
*LOADS
*RC U357:B 1.555e-04
*RC U506:A 1.555e-04
*RC U86:A 1.555e-04
*END

*R_NET N501 5.800e-03
*DRIVER U506:Y
*CELL oa21d1_hd
*C2_R1_C1 2.900e-03 7.370e-03 2.900e-03 
*LOADS
*RC U88:B 4.275e-05
*END

*R_NET N502 5.750e-03
*DRIVER U507:Y
*CELL scg6d1_hd
*C2_R1_C1 2.875e-03 7.370e-03 2.875e-03 
*LOADS
*RC U91:A 4.238e-05
*END

*R_NET N507 5.800e-03
*DRIVER U508:Y
*CELL scg6d1_hd
*C2_R1_C1 2.900e-03 7.370e-03 2.900e-03 
*LOADS
*RC U112:B 4.275e-05
*END

*R_NET N508 4.780e-03
*DRIVER U509:Y
*CELL oa21d1_hd
*C2_R1_C1 2.390e-03 7.370e-03 2.390e-03 
*LOADS
*RC U113:B 3.523e-05
*END

*R_NET N509 4.780e-03
*DRIVER U510:Y
*CELL scg6d1_hd
*C2_R1_C1 2.390e-03 7.370e-03 2.390e-03 
*LOADS
*RC U114:B 3.523e-05
*END

*R_NET N510 4.780e-03
*DRIVER U499:Y
*CELL oa21d1_hd
*C2_R1_C1 2.390e-03 7.370e-03 2.390e-03 
*LOADS
*RC U115:B 3.523e-05
*END

*R_NET N511 4.780e-03
*DRIVER U500:Y
*CELL scg6d1_hd
*C2_R1_C1 2.390e-03 7.370e-03 2.390e-03 
*LOADS
*RC U116:B 3.523e-05
*END

*R_NET N512 4.780e-03
*DRIVER U501:Y
*CELL oa21d1_hd
*C2_R1_C1 2.390e-03 7.370e-03 2.390e-03 
*LOADS
*RC U117:B 3.523e-05
*END

*R_NET N513 4.780e-03
*DRIVER U502:Y
*CELL scg6d1_hd
*C2_R1_C1 2.390e-03 7.370e-03 2.390e-03 
*LOADS
*RC U118:B 3.523e-05
*END

*R_NET N514 4.780e-03
*DRIVER U503:Y
*CELL oa21d1_hd
*C2_R1_C1 2.390e-03 7.370e-03 2.390e-03 
*LOADS
*RC U119:B 3.523e-05
*END

*R_NET N515 4.780e-03
*DRIVER U504:Y
*CELL scg6d1_hd
*C2_R1_C1 2.390e-03 7.370e-03 2.390e-03 
*LOADS
*RC U120:B 3.523e-05
*END

*R_NET N516 4.780e-03
*DRIVER U505:Y
*CELL oa21d1_hd
*C2_R1_C1 2.390e-03 7.370e-03 2.390e-03 
*LOADS
*RC U199:B 3.523e-05
*END

*R_NET N705 4.680e-03
*DRIVER U339:Y
*CELL scg21d1_hd
*C2_R1_C1 2.340e-03 7.370e-03 2.340e-03 
*LOADS
*RC cmd_ready_reg_reg:D 3.449e-05
*END

*R_NET N706 4.680e-03
*DRIVER U325:Y
*CELL ao21d1_hd
*C2_R1_C1 2.340e-03 7.370e-03 2.340e-03 
*LOADS
*RC data_in_ready_reg_reg:D 3.449e-05
*END

*R_NET N707 4.680e-03
*DRIVER U318:Y
*CELL oa22d1_hd
*C2_R1_C1 2.340e-03 7.370e-03 2.340e-03 
*LOADS
*RC data_out_valid_reg_reg:D 3.449e-05
*END

*R_NET N710 4.680e-03
*DRIVER U315:Y
*CELL ao21d1_hd
*C2_R1_C1 2.340e-03 7.370e-03 2.340e-03 
*LOADS
*RC busy_reg_reg:D 3.449e-05
*END

*R_NET N713 4.680e-03
*DRIVER U312:Y
*CELL ao211d1_hd
*C2_R1_C1 2.340e-03 7.370e-03 2.340e-03 
*LOADS
*RC missed_ack_reg_reg:D 3.449e-05
*END

*R_NET n7 3.760e-02
*DRIVER U424:Y
*CELL nr2d1_hd
*C2_R1_C1 1.880e-02 1.715e-02 1.880e-02 
*LOADS
*RC U421:A 6.448e-04
*RC U593:A 6.448e-04
*RC U642:A 6.448e-04
*RC U644:C 6.448e-04
*RC U645:A 6.448e-04
*RC U111:A 6.448e-04
*RC U201:D 6.448e-04
*END

*R_NET n10 4.644e-02
*DRIVER U461:Y
*CELL ao21d1_hd
*C2_R1_C1 2.322e-02 2.066e-02 2.322e-02 
*LOADS
*RC U368:A 9.595e-04
*RC U376:A 9.595e-04
*RC U382:A 9.595e-04
*RC U529:A 9.595e-04
*RC U546:A 9.595e-04
*RC U610:A 9.595e-04
*RC U624:A 9.595e-04
*RC U339:C 9.595e-04
*END

*R_NET n14 1.642e-02
*DRIVER U485:Y
*CELL ivd1_hd
*C2_R1_C1 8.210e-03 9.460e-03 8.210e-03 
*LOADS
*RC U381:A 1.553e-04
*RC U622:C 1.553e-04
*RC U307:B 1.553e-04
*END

*R_NET n17 2.309e-02
*DRIVER U446:Y
*CELL ad2d1_hd
*C2_R1_C1 1.154e-02 1.094e-02 1.154e-02 
*LOADS
*RC U434:B 2.526e-04
*RC U602:A 2.526e-04
*RC U644:A 2.526e-04
*RC U195:A 2.526e-04
*END

*R_NET n19 2.250e-02
*DRIVER U455:Y
*CELL ivd1_hd
*C2_R1_C1 1.125e-02 1.094e-02 1.125e-02 
*LOADS
*RC U388:A 2.462e-04
*RC U409:B 2.462e-04
*RC U454:B 2.462e-04
*RC U656:B 2.462e-04
*END

*R_NET n22 2.682e-02
*DRIVER U460:Y
*CELL ivd1_hd
*C2_R1_C1 1.341e-02 1.549e-02 1.341e-02 
*LOADS
*RC U372:A 4.154e-04
*RC U397:A 4.154e-04
*RC U419:B 4.154e-04
*RC U605:A 4.154e-04
*RC U172:B 4.154e-04
*END

*R_NET n24 2.804e-02
*DRIVER U487:Y
*CELL ivd1_hd
*C2_R1_C1 1.402e-02 1.549e-02 1.402e-02 
*LOADS
*RC U406:B 4.343e-04
*RC U550:B 4.343e-04
*RC U591:B 4.343e-04
*RC U599:C 4.343e-04
*RC U176:B 4.343e-04
*END

*R_NET n26 2.302e-02
*DRIVER U484:Y
*CELL ivd1_hd
*C2_R1_C1 1.151e-02 1.094e-02 1.151e-02 
*LOADS
*RC U404:A 2.518e-04
*RC U555:B 2.518e-04
*RC U589:A 2.518e-04
*RC U182:B 2.518e-04
*END

*R_NET n27 2.296e-02
*DRIVER U493:Y
*CELL ivd1_hd
*C2_R1_C1 1.148e-02 1.094e-02 1.148e-02 
*LOADS
*RC U405:B 2.512e-04
*RC U551:A 2.512e-04
*RC U601:A 2.512e-04
*RC U185:B 2.512e-04
*END

*R_NET n35 2.785e-02
*DRIVER U468:Y
*CELL ivd1_hd
*C2_R1_C1 1.393e-02 1.549e-02 1.393e-02 
*LOADS
*RC U375:A 4.314e-04
*RC U481:A 4.314e-04
*RC U523:B 4.314e-04
*RC U609:B 4.314e-04
*RC U278:C 4.314e-04
*END

*R_NET n36 2.787e-02
*DRIVER U467:Y
*CELL ivd1_hd
*C2_R1_C1 1.393e-02 1.549e-02 1.393e-02 
*LOADS
*RC U481:B 4.317e-04
*RC U513:A 4.317e-04
*RC U521:B 4.317e-04
*RC U526:A 4.317e-04
*RC U167:C 4.317e-04
*END

*R_NET n38 2.708e-02
*DRIVER U469:Y
*CELL ivd1_hd
*C2_R1_C1 1.354e-02 1.549e-02 1.354e-02 
*LOADS
*RC U495:A 4.195e-04
*RC U513:B 4.195e-04
*RC U543:B 4.195e-04
*RC U560:A 4.195e-04
*RC U162:C 4.195e-04
*END

*R_NET n39 2.253e-02
*DRIVER U470:Y
*CELL ivd1_hd
*C2_R1_C1 1.126e-02 1.094e-02 1.126e-02 
*LOADS
*RC U370:B 2.465e-04
*RC U497:A 2.465e-04
*RC U523:A 2.465e-04
*RC U156:C 2.465e-04
*END

*R_NET n40 1.089e-02
*DRIVER U478:Y
*CELL ivd1_hd
*C2_R1_C1 5.445e-03 9.100e-03 5.445e-03 
*LOADS
*RC U659:A 9.910e-05
*RC U312:C 9.910e-05
*END

*R_NET n70 6.580e-03
*DRIVER U657:Y
*CELL nr3d1_hd
*C2_R1_C1 3.290e-03 7.370e-03 3.290e-03 
*LOADS
*RC phy_rx_data_reg_reg:E 4.849e-05
*END

*R_NET n72 2.268e-02
*DRIVER U431:Y
*CELL ivd1_hd
*C2_R1_C1 1.134e-02 1.094e-02 1.134e-02 
*LOADS
*RC U356:A 2.481e-04
*RC U263:A 2.481e-04
*RC U592:B 2.481e-04
*RC U92:A 2.481e-04
*END

*R_NET n75 1.067e-02
*DRIVER U403:Y
*CELL clknd2d1_hd
*C2_R1_C1 5.335e-03 9.100e-03 5.335e-03 
*LOADS
*RC U558:D 9.710e-05
*RC U82:A 9.710e-05
*END

*R_NET n76 2.892e-02
*DRIVER U361:Y
*CELL clknd2d1_hd
*C2_R1_C1 1.446e-02 1.549e-02 1.446e-02 
*LOADS
*RC U185:D 4.480e-04
*RC U182:D 4.480e-04
*RC U176:D 4.480e-04
*RC U172:D 4.480e-04
*RC U82:B 4.480e-04
*END

*R_NET n77 4.680e-03
*DRIVER U83:Y
*CELL oa21d1_hd
*C2_R1_C1 2.340e-03 7.370e-03 2.340e-03 
*LOADS
*RC U82:D 3.449e-05
*END

*R_NET n78 5.920e-03
*DRIVER U656:Y
*CELL nr4d1_hd
*C2_R1_C1 2.960e-03 7.370e-03 2.960e-03 
*LOADS
*RC U83:B 4.363e-05
*END

*R_NET n79 5.163e-02
*DRIVER U362:Y
*CELL nr2d1_hd
*C2_R1_C1 2.582e-02 2.090e-02 2.582e-02 
*LOADS
*RC U361:B 1.079e-03
*RC U423:A 1.079e-03
*RC U206:A 1.079e-03
*RC U195:C 1.079e-03
*RC U185:A 1.079e-03
*RC U182:A 1.079e-03
*RC U176:A 1.079e-03
*RC U172:A 1.079e-03
*RC U83:C 1.079e-03
*END

*R_NET n80 2.412e-02
*DRIVER U594:Y
*CELL nr2d1_hd
*C2_R1_C1 1.206e-02 1.094e-02 1.206e-02 
*LOADS
*RC U597:C 2.639e-04
*RC U645:B 2.639e-04
*RC U656:A 2.639e-04
*RC U111:C 2.639e-04
*END

*R_NET n83 5.200e-03
*DRIVER U86:Y
*CELL ao22d1_hd
*C2_R1_C1 2.600e-03 7.370e-03 2.600e-03 
*LOADS
*RC U411:A 3.832e-05
*END

*R_NET n84 9.600e-03
*DRIVER U358:Y
*CELL clknd2d1_hd
*C2_R1_C1 4.800e-03 9.100e-03 4.800e-03 
*LOADS
*RC U411:B 8.736e-05
*RC U415:B 8.736e-05
*END

*R_NET n85 6.419e-02
*DRIVER U359:Y
*CELL nr2ad1_hd
*C2_R1_C1 3.209e-02 2.212e-02 3.209e-02 
*LOADS
*RC U362:B 1.420e-03
*RC U118:A 1.420e-03
*RC U117:A 1.420e-03
*RC U113:A 1.420e-03
*RC U115:A 1.420e-03
*RC U114:A 1.420e-03
*RC U116:A 1.420e-03
*RC U199:A 1.420e-03
*RC U120:A 1.420e-03
*RC U119:A 1.420e-03
*RC U112:A 1.420e-03
*RC U91:B 1.420e-03
*RC U88:A 1.420e-03
*RC U86:B 1.420e-03
*END

*R_NET n86 1.102e-02
*DRIVER U92:Y
*CELL ao21d1_hd
*C2_R1_C1 5.510e-03 9.100e-03 5.510e-03 
*LOADS
*RC U91:D 1.003e-04
*RC U86:D 1.003e-04
*END

*R_NET n87 5.200e-03
*DRIVER U88:Y
*CELL ao22d1_hd
*C2_R1_C1 2.600e-03 7.370e-03 2.600e-03 
*LOADS
*RC U410:A 3.832e-05
*END

*R_NET n88 9.600e-03
*DRIVER U111:Y
*CELL nd3d1_hd
*C2_R1_C1 4.800e-03 9.100e-03 4.800e-03 
*LOADS
*RC U410:B 8.736e-05
*RC U416:B 8.736e-05
*END

*R_NET n89 5.162e-02
*DRIVER U360:Y
*CELL nd2bd1_hd
*C2_R1_C1 2.581e-02 2.139e-02 2.581e-02 
*LOADS
*RC U118:D 1.104e-03
*RC U117:D 1.104e-03
*RC U113:D 1.104e-03
*RC U115:D 1.104e-03
*RC U114:D 1.104e-03
*RC U116:D 1.104e-03
*RC U199:D 1.104e-03
*RC U120:D 1.104e-03
*RC U119:D 1.104e-03
*RC U112:D 1.104e-03
*RC U88:D 1.104e-03
*END

*R_NET n90 5.200e-03
*DRIVER U91:Y
*CELL ao22d1_hd
*C2_R1_C1 2.600e-03 7.370e-03 2.600e-03 
*LOADS
*RC U415:A 3.832e-05
*END

*R_NET n91 1.005e-02
*DRIVER U643:Y
*CELL ao21d1_hd
*C2_R1_C1 5.025e-03 9.100e-03 5.025e-03 
*LOADS
*RC U358:B 9.146e-05
*RC U645:C 9.146e-05
*END

*R_NET n92 5.910e-03
*DRIVER U644:Y
*CELL oa21d1_hd
*C2_R1_C1 2.955e-03 7.370e-03 2.955e-03 
*LOADS
*RC U92:B 4.356e-05
*END

*R_NET n93 4.780e-03
*DRIVER U654:Y
*CELL oa211d1_hd
*C2_R1_C1 2.390e-03 7.370e-03 2.390e-03 
*LOADS
*RC U93:B 3.523e-05
*END

*R_NET n94 2.878e-02
*DRIVER U263:Y
*CELL nr2d1_hd
*C2_R1_C1 1.439e-02 1.674e-02 1.439e-02 
*LOADS
*RC U360:AN 4.818e-04
*RC U362:A 4.818e-04
*RC U102:D 4.818e-04
*RC U99:C 4.818e-04
*RC U96:C 4.818e-04
*RC U93:C 4.818e-04
*END

*R_NET n97 4.780e-03
*DRIVER U652:Y
*CELL oa211d1_hd
*C2_R1_C1 2.390e-03 7.370e-03 2.390e-03 
*LOADS
*RC U96:B 3.523e-05
*END

*R_NET n99 4.780e-03
*DRIVER U412:Y
*CELL clknd2d1_hd
*C2_R1_C1 2.390e-03 7.370e-03 2.390e-03 
*LOADS
*RC U99:B 3.523e-05
*END

*R_NET n101 4.780e-03
*DRIVER U649:Y
*CELL oa211d1_hd
*C2_R1_C1 2.390e-03 7.370e-03 2.390e-03 
*LOADS
*RC U102:B 3.523e-05
*END

*R_NET n103 1.765e-02
*DRIVER U568:Y
*CELL nd2bd1_hd
*C2_R1_C1 8.825e-03 9.460e-03 8.825e-03 
*LOADS
*RC U569:C 1.670e-04
*RC U644:B 1.670e-04
*RC U201:B 1.670e-04
*END

*R_NET n104 3.666e-02
*DRIVER U356:Y
*CELL clknd2d1_hd
*C2_R1_C1 1.833e-02 1.674e-02 1.833e-02 
*LOADS
*RC U359:B 6.137e-04
*RC U647:A 6.137e-04
*RC U649:B 6.137e-04
*RC U652:B 6.137e-04
*RC U653:B 6.137e-04
*RC U654:B 6.137e-04
*END

*R_NET n111 5.200e-03
*DRIVER U112:Y
*CELL ao22d1_hd
*C2_R1_C1 2.600e-03 7.370e-03 2.600e-03 
*LOADS
*RC U416:A 3.832e-05
*END

*R_NET n122 2.249e-02
*DRIVER U372:Y
*CELL clknd2d1_hd
*C2_R1_C1 1.124e-02 1.094e-02 1.124e-02 
*LOADS