*SPEF "IEEE 1481-1999"
*DESIGN "i2c_master"
*DATE "Thu May 14 15:23:05 2020"
*VENDOR "SYNOPSYS INC"
*PROGRAM "Synopsys Design Compiler cmos"
*VERSION "F-2011.09-SP5-3"
*DESIGN_FLOW "SYNTHESIS"
*DIVIDER /
*DELIMITER :
*BUS_DELIMITER []
*T_UNIT 1.0 NS
*C_UNIT 1.0 PF
*R_UNIT 1.0 KOHM
*L_UNIT 1.0 HENRY

*PORTS

i_CLK I *L 0.000e+00 *S 0.000e+00 0.000e+00 
i_RSTN I *L 0.000e+00 *S 0.000e+00 0.000e+00 
cmd_start I *L 0.000e+00 *S 0.000e+00 0.000e+00 
cmd_read I *L 0.000e+00 *S 0.000e+00 0.000e+00 
cmd_write I *L 0.000e+00 *S 0.000e+00 0.000e+00 
cmd_write_multiple I *L 0.000e+00 *S 0.000e+00 0.000e+00 
cmd_stop I *L 0.000e+00 *S 0.000e+00 0.000e+00 
cmd_valid I *L 0.000e+00 *S 0.000e+00 0.000e+00 
cmd_ready O *L 1.035e-02 *S 2.633e-01 1.988e-01 
data_in\[7\] I *L 0.000e+00 *S 0.000e+00 0.000e+00 
data_in\[6\] I *L 0.000e+00 *S 0.000e+00 0.000e+00 
data_in\[5\] I *L 0.000e+00 *S 0.000e+00 0.000e+00 
data_in\[4\] I *L 0.000e+00 *S 0.000e+00 0.000e+00 
data_in\[3\] I *L 0.000e+00 *S 0.000e+00 0.000e+00 
data_in\[2\] I *L 0.000e+00 *S 0.000e+00 0.000e+00 
data_in\[1\] I *L 0.000e+00 *S 0.000e+00 0.000e+00 
data_in\[0\] I *L 0.000e+00 *S 0.000e+00 0.000e+00 
data_in_valid I *L 0.000e+00 *S 0.000e+00 0.000e+00 
data_in_ready O *L 1.035e-02 *S 2.076e-01 1.646e-01 
data_in_last I *L 0.000e+00 *S 0.000e+00 0.000e+00 
data_out\[7\] O *L 1.035e-02 *S 1.566e-01 1.312e-01 
data_out\[6\] O *L 1.035e-02 *S 1.566e-01 1.312e-01 
data_out\[5\] O *L 1.035e-02 *S 1.566e-01 1.312e-01 
data_out\[4\] O *L 1.035e-02 *S 1.566e-01 1.312e-01 
data_out\[3\] O *L 1.035e-02 *S 1.566e-01 1.312e-01 
data_out\[2\] O *L 1.035e-02 *S 1.566e-01 1.312e-01 
data_out\[1\] O *L 1.035e-02 *S 1.566e-01 1.312e-01 
data_out\[0\] O *L 1.035e-02 *S 1.566e-01 1.312e-01 
data_out_valid O *L 1.035e-02 *S 2.089e-01 1.654e-01 
data_out_ready I *L 0.000e+00 *S 0.000e+00 0.000e+00 
data_out_last O *L 1.035e-02 *S 1.566e-01 1.312e-01 
scl_i I *L 0.000e+00 *S 0.000e+00 0.000e+00 
scl_o O *L 1.035e-02 *S 2.464e-01 1.884e-01 
scl_t O *L 1.035e-02 *S 1.130e-01 7.848e-02 
sda_i I *L 0.000e+00 *S 0.000e+00 0.000e+00 
sda_o O *L 1.035e-02 *S 2.145e-01 1.688e-01 
sda_t O *L 1.035e-02 *S 1.635e-01 1.065e-01 
busy O *L 1.035e-02 *S 1.246e-01 1.083e-01 
bus_control O *L 1.035e-02 *S 1.556e-01 1.304e-01 
bus_active O *L 1.035e-02 *S 2.092e-01 1.656e-01 
missed_ack O *L 1.035e-02 *S 1.246e-01 1.083e-01 

*R_NET i_CLK 2.691e-01
*DRIVER i_CLK
*CELL NULL
*C2_R1_C1 1.345e-01 7.031e-02 1.345e-01 
*LOADS
*RC phy_rx_data_reg_reg:CK 1.892e-02
*RC sda_i_reg_reg:CK 1.892e-02
*RC last_sda_i_reg_reg:CK 1.892e-02
*RC bus_active_reg_reg:CK 1.892e-02
*RC busy_reg_reg:CK 1.892e-02
*RC missed_ack_reg_reg:CK 1.892e-02
*RC cmd_ready_reg_reg:CK 1.892e-02
*RC data_out_valid_reg_reg:CK 1.892e-02
*RC data_in_ready_reg_reg:CK 1.892e-02
*RC state_reg_reg_3_:CK 1.892e-02
*RC state_reg_reg_1_:CK 1.892e-02
*RC state_reg_reg_2_:CK 1.892e-02
*RC bit_count_reg_reg_3_:CK 1.892e-02
*RC bit_count_reg_reg_0_:CK 1.892e-02
*RC bit_count_reg_reg_2_:CK 1.892e-02
*RC state_reg_reg_0_:CK 1.892e-02
*RC bit_count_reg_reg_1_:CK 1.892e-02
*RC data_out_reg_reg_7_:CK 1.892e-02
*RC data_out_reg_reg_6_:CK 1.892e-02
*RC data_out_reg_reg_5_:CK 1.892e-02
*RC data_out_reg_reg_4_:CK 1.892e-02
*RC data_out_reg_reg_3_:CK 1.892e-02
*RC data_out_reg_reg_2_:CK 1.892e-02
*RC data_out_reg_reg_1_:CK 1.892e-02
*RC data_out_reg_reg_0_:CK 1.892e-02
*RC data_out_last_reg_reg:CK 1.892e-02
*RC mode_write_multiple_reg_reg:CK 1.892e-02
*RC mode_stop_reg_reg:CK 1.892e-02
*RC mode_read_reg_reg:CK 1.892e-02
*RC last_reg_reg:CK 1.892e-02
*RC data_reg_reg_6_:CK 1.892e-02
*RC data_reg_reg_4_:CK 1.892e-02
*RC data_reg_reg_2_:CK 1.892e-02
*RC data_reg_reg_7_:CK 1.892e-02
*RC data_reg_reg_5_:CK 1.892e-02
*RC data_reg_reg_3_:CK 1.892e-02
*RC data_reg_reg_0_:CK 1.892e-02
*RC data_reg_reg_1_:CK 1.892e-02
*RC delay_scl_reg_reg:CK 1.892e-02
*RC sda_o_reg_reg:CK 1.892e-02
*RC delay_reg_reg_3_:CK 1.892e-02
*RC delay_reg_reg_1_:CK 1.892e-02
*RC delay_reg_reg_16_:CK 1.892e-02
*RC delay_reg_reg_15_:CK 1.892e-02
*RC delay_reg_reg_14_:CK 1.892e-02
*RC delay_reg_reg_13_:CK 1.892e-02
*RC delay_reg_reg_12_:CK 1.892e-02
*RC delay_reg_reg_11_:CK 1.892e-02
*RC delay_reg_reg_10_:CK 1.892e-02
*RC delay_reg_reg_9_:CK 1.892e-02
*RC delay_reg_reg_0_:CK 1.892e-02
*RC delay_reg_reg_8_:CK 1.892e-02
*RC delay_reg_reg_2_:CK 1.892e-02
*RC scl_o_reg_reg:CK 1.892e-02
*RC delay_reg_reg_5_:CK 1.892e-02
*RC delay_reg_reg_7_:CK 1.892e-02
*RC delay_reg_reg_6_:CK 1.892e-02
*RC delay_reg_reg_4_:CK 1.892e-02
*RC bus_control_reg_reg:CK 1.892e-02
*RC phy_state_reg_reg_3_:CK 1.892e-02
*RC phy_state_reg_reg_2_:CK 1.892e-02
*RC phy_state_reg_reg_1_:CK 1.892e-02
*RC phy_state_reg_reg_0_:CK 1.892e-02
*RC scl_i_reg_reg:CK 1.892e-02
*END

*R_NET cmd_start 1.038e-02
*DRIVER cmd_start
*CELL NULL
*C2_R1_C1 5.190e-03 9.100e-03 5.190e-03 
*LOADS
*RC U540:B 9.446e-05
*RC U518:A 9.446e-05
*END

*R_NET cmd_read 1.008e-02
*DRIVER cmd_read
*CELL NULL
*C2_R1_C1 5.040e-03 9.100e-03 5.040e-03 
*LOADS
*RC U497:A 9.173e-05
*RC U518:B 9.173e-05
*END

*R_NET cmd_write 1.026e-02
*DRIVER cmd_write
*CELL NULL
*C2_R1_C1 5.130e-03 9.100e-03 5.130e-03 
*LOADS
*RC U519:A 9.337e-05
*RC U540:A 9.337e-05
*END

*R_NET cmd_write_multiple 1.008e-02
*DRIVER cmd_write_multiple
*CELL NULL
*C2_R1_C1 5.040e-03 9.100e-03 5.040e-03 
*LOADS
*RC U519:B 9.173e-05
*RC U648:A 9.173e-05
*END

*R_NET cmd_stop 1.007e-02
*DRIVER cmd_stop
*CELL NULL
*C2_R1_C1 5.035e-03 9.100e-03 5.035e-03 
*LOADS
*RC U535:A 9.164e-05
*RC U538:B 9.164e-05
*END

*R_NET cmd_valid 1.001e-02
*DRIVER cmd_valid
*CELL NULL
*C2_R1_C1 5.005e-03 9.100e-03 5.005e-03 
*LOADS
*RC U360:B 9.109e-05
*RC U520:C 9.109e-05
*END

*R_NET cmd_ready 3.067e-02
*DRIVER cmd_ready_reg_reg:Q
*CELL fd1qd1_hd
*C2_R1_C1 1.534e-02 1.094e-02 1.534e-02 
*LOADS
*RC U357:A 3.355e-04
*RC U520:D 3.355e-04
*RC U628:A 3.355e-04
*RC cmd_ready 3.355e-04
*END

*R_NET data_in\[7\] 5.900e-03
*DRIVER data_in\[7\]
*CELL NULL
*C2_R1_C1 2.950e-03 7.370e-03 2.950e-03 
*LOADS
*RC U679:D 4.348e-05
*END

*R_NET data_in\[6\] 5.900e-03
*DRIVER data_in\[6\]
*CELL NULL
*C2_R1_C1 2.950e-03 7.370e-03 2.950e-03 
*LOADS
*RC U677:D 4.348e-05
*END

*R_NET data_in\[5\] 5.900e-03
*DRIVER data_in\[5\]
*CELL NULL
*C2_R1_C1 2.950e-03 7.370e-03 2.950e-03 
*LOADS
*RC U675:D 4.348e-05
*END

*R_NET data_in\[4\] 5.900e-03
*DRIVER data_in\[4\]
*CELL NULL
*C2_R1_C1 2.950e-03 7.370e-03 2.950e-03 
*LOADS
*RC U673:D 4.348e-05
*END

*R_NET data_in\[3\] 5.900e-03
*DRIVER data_in\[3\]
*CELL NULL
*C2_R1_C1 2.950e-03 7.370e-03 2.950e-03 
*LOADS
*RC U671:D 4.348e-05
*END

*R_NET data_in\[2\] 5.900e-03
*DRIVER data_in\[2\]
*CELL NULL
*C2_R1_C1 2.950e-03 7.370e-03 2.950e-03 
*LOADS
*RC U669:D 4.348e-05
*END

*R_NET data_in\[1\] 5.900e-03
*DRIVER data_in\[1\]
*CELL NULL
*C2_R1_C1 2.950e-03 7.370e-03 2.950e-03 
*LOADS
*RC U668:D 4.348e-05
*END

*R_NET data_in\[0\] 5.900e-03
*DRIVER data_in\[0\]
*CELL NULL
*C2_R1_C1 2.950e-03 7.370e-03 2.950e-03 
*LOADS
*RC U666:D 4.348e-05
*END

*R_NET data_in_valid 9.690e-03
*DRIVER data_in_valid
*CELL NULL
*C2_R1_C1 4.845e-03 9.100e-03 4.845e-03 
*LOADS
*RC U452:B 8.818e-05
*RC U544:D 8.818e-05
*END

*R_NET data_in_ready 2.370e-02
*DRIVER data_in_ready_reg_reg:Q
*CELL fd1qd1_hd
*C2_R1_C1 1.185e-02 9.460e-03 1.185e-02 
*LOADS
*RC U452:A 2.242e-04
*RC U544:C 2.242e-04
*RC data_in_ready 2.242e-04
*END

*R_NET data_in_last 5.580e-03
*DRIVER data_in_last
*CELL NULL
*C2_R1_C1 2.790e-03 7.370e-03 2.790e-03 
*LOADS
*RC U646:B 4.112e-05
*END

*R_NET data_out\[7\] 1.740e-02
*DRIVER data_out_reg_reg_7_:Q
*CELL fd1qd1_hd
*C2_R1_C1 8.700e-03 9.100e-03 8.700e-03 
*LOADS
*RC U430:C 1.583e-04
*RC data_out\[7\] 1.583e-04
*END

*R_NET data_out\[6\] 1.740e-02
*DRIVER data_out_reg_reg_6_:Q
*CELL fd1qd1_hd
*C2_R1_C1 8.700e-03 9.100e-03 8.700e-03 
*LOADS
*RC U431:C 1.583e-04
*RC data_out\[6\] 1.583e-04
*END

*R_NET data_out\[5\] 1.740e-02
*DRIVER data_out_reg_reg_5_:Q
*CELL fd1qd1_hd
*C2_R1_C1 8.700e-03 9.100e-03 8.700e-03 
*LOADS
*RC U432:C 1.583e-04
*RC data_out\[5\] 1.583e-04
*END

*R_NET data_out\[4\] 1.740e-02
*DRIVER data_out_reg_reg_4_:Q
*CELL fd1qd1_hd
*C2_R1_C1 8.700e-03 9.100e-03 8.700e-03 
*LOADS
*RC U426:C 1.583e-04
*RC data_out\[4\] 1.583e-04
*END

*R_NET data_out\[3\] 1.740e-02
*DRIVER data_out_reg_reg_3_:Q
*CELL fd1qd1_hd
*C2_R1_C1 8.700e-03 9.100e-03 8.700e-03 
*LOADS
*RC U427:C 1.583e-04
*RC data_out\[3\] 1.583e-04
*END

*R_NET data_out\[2\] 1.740e-02
*DRIVER data_out_reg_reg_2_:Q
*CELL fd1qd1_hd
*C2_R1_C1 8.700e-03 9.100e-03 8.700e-03 
*LOADS
*RC U424:C 1.583e-04
*RC data_out\[2\] 1.583e-04
*END

*R_NET data_out\[1\] 1.740e-02
*DRIVER data_out_reg_reg_1_:Q
*CELL fd1qd1_hd
*C2_R1_C1 8.700e-03 9.100e-03 8.700e-03 
*LOADS
*RC U429:C 1.583e-04
*RC data_out\[1\] 1.583e-04
*END

*R_NET data_out\[0\] 1.740e-02
*DRIVER data_out_reg_reg_0_:Q
*CELL fd1qd1_hd
*C2_R1_C1 8.700e-03 9.100e-03 8.700e-03 
*LOADS
*RC U425:C 1.583e-04
*RC data_out\[0\] 1.583e-04
*END

*R_NET data_out_valid 2.387e-02
*DRIVER data_out_valid_reg_reg:Q
*CELL fd1qd1_hd
*C2_R1_C1 1.193e-02 9.460e-03 1.193e-02 
*LOADS
*RC U421:B 2.258e-04
*RC U514:A 2.258e-04
*RC data_out_valid 2.258e-04
*END

*R_NET data_out_ready 5.790e-03
*DRIVER data_out_ready
*CELL NULL
*C2_R1_C1 2.895e-03 7.370e-03 2.895e-03 
*LOADS
*RC U318:A 4.267e-05
*END

*R_NET data_out_last 1.740e-02
*DRIVER data_out_last_reg_reg:Q
*CELL fd1qd1_hd
*C2_R1_C1 8.700e-03 9.100e-03 8.700e-03 
*LOADS
*RC U428:C 1.583e-04
*RC data_out_last 1.583e-04
*END

*R_NET scl_i 4.680e-03
*DRIVER scl_i
*CELL NULL
*C2_R1_C1 2.340e-03 7.370e-03 2.340e-03 
*LOADS
*RC scl_i_reg_reg:D 3.449e-05
*END

*R_NET scl_o 2.855e-02
*DRIVER scl_o_reg_reg:Q
*CELL fd1qd1_hd
*C2_R1_C1 1.427e-02 1.094e-02 1.427e-02 
*LOADS
*RC U434:A 3.123e-04
*RC U194:A 3.123e-04
*RC U608:AN 3.123e-04
*RC scl_o 3.123e-04
*END

*R_NET sda_i 4.680e-03
*DRIVER sda_i
*CELL NULL
*C2_R1_C1 2.340e-03 7.370e-03 2.340e-03 
*LOADS
*RC sda_i_reg_reg:D 3.449e-05
*END

*R_NET sda_o 2.456e-02
*DRIVER sda_o_reg_reg:Q
*CELL fd1qd1_hd
*C2_R1_C1 1.228e-02 9.460e-03 1.228e-02 
*LOADS
*RC U489:A 2.323e-04
*RC U605:A 2.323e-04
*RC sda_o 2.323e-04
*END

*R_NET sda_t 1.872e-02
*DRIVER U489:Y
*CELL ivd1_hd
*C2_R1_C1 9.360e-03 9.100e-03 9.360e-03 
*LOADS
*RC U206:B 1.704e-04
*RC sda_t 1.704e-04
*END

*R_NET busy 1.350e-02
*DRIVER busy_reg_reg:Q
*CELL fd1qd1_hd
*C2_R1_C1 6.750e-03 7.370e-03 6.750e-03 
*LOADS
*RC busy 9.950e-05
*END

*R_NET bus_control 1.727e-02
*DRIVER bus_control_reg_reg:Q
*CELL fd1qd1_hd
*C2_R1_C1 8.635e-03 9.100e-03 8.635e-03 
*LOADS
*RC bus_control 1.572e-04
*RC U82:C 1.572e-04
*END

*R_NET bus_active 2.390e-02
*DRIVER bus_active_reg_reg:Q
*CELL fd1qd1_hd
*C2_R1_C1 1.195e-02 9.460e-03 1.195e-02 
*LOADS
*RC U480:A 2.261e-04
*RC U556:A 2.261e-04
*RC bus_active 2.261e-04
*END

*R_NET missed_ack 1.350e-02
*DRIVER missed_ack_reg_reg:Q
*CELL fd1qd1_hd
*C2_R1_C1 6.750e-03 7.370e-03 6.750e-03 
*LOADS
*RC missed_ack 9.950e-05
*END

*R_NET scl_i_reg 1.058e-02
*DRIVER scl_i_reg_reg:Q
*CELL fd1qd1_hd
*C2_R1_C1 5.290e-03 9.100e-03 5.290e-03 
*LOADS
*RC U526:C 9.628e-05
*RC U608:B 9.628e-05
*END

*R_NET sda_i_reg 2.074e-02
*DRIVER sda_i_reg_reg:Q
*CELL fd1qd1_hd
*C2_R1_C1 1.037e-02 1.094e-02 1.037e-02 
*LOADS
*RC U381:A 2.269e-04
*RC phy_rx_data_reg_reg:D 2.269e-04
*RC last_sda_i_reg_reg:D 2.269e-04
*RC U526:A 2.269e-04
*END

*R_NET last_sda_i_reg 1.645e-02
*DRIVER last_sda_i_reg_reg:Q
*CELL fd1qd1_hd
*C2_R1_C1 8.225e-03 9.460e-03 8.225e-03 
*LOADS
*RC U381:B 1.556e-04
*RC U526:B 1.556e-04
*RC U308:C 1.556e-04
*END

*R_NET data_reg\[7\] 1.077e-02
*DRIVER data_reg_reg_7_:Q
*CELL fd1qd1_hd
*C2_R1_C1 5.385e-03 9.100e-03 5.385e-03 
*LOADS
*RC U576:B 9.801e-05
*RC U679:A 9.801e-05
*END

*R_NET data_reg\[6\] 9.170e-03
*DRIVER data_reg_reg_6_:Q
*CELL fd1qd1_hd
*C2_R1_C1 4.585e-03 9.100e-03 4.585e-03 
*LOADS
*RC U430:A 8.345e-05
*RC U488:A 8.345e-05
*END

*R_NET data_reg\[5\] 2.293e-02
*DRIVER data_reg_reg_5_:Q
*CELL fd1qd1_hd
*C2_R1_C1 1.146e-02 1.094e-02 1.146e-02 
*LOADS
*RC U431:A 2.509e-04
*RC U572:B 2.509e-04
*RC U675:A 2.509e-04
*RC U677:A 2.509e-04
*END

*R_NET data_reg\[4\] 1.544e-02
*DRIVER data_reg_reg_4_:Q
*CELL fd1qd1_hd
*C2_R1_C1 7.720e-03 9.460e-03 7.720e-03 
*LOADS
*RC U432:A 1.461e-04
*RC U482:A 1.461e-04
*RC U575:C 1.461e-04
*END

*R_NET data_reg\[3\] 2.252e-02
*DRIVER data_reg_reg_3_:Q
*CELL fd1qd1_hd
*C2_R1_C1 1.126e-02 1.094e-02 1.126e-02 
*LOADS
*RC U426:A 2.464e-04
*RC U575:B 2.464e-04
*RC U671:A 2.464e-04
*RC U673:A 2.464e-04
*END

*R_NET data_reg\[2\] 9.170e-03
*DRIVER data_reg_reg_2_:Q
*CELL fd1qd1_hd
*C2_R1_C1 4.585e-03 9.100e-03 4.585e-03 
*LOADS
*RC U427:A 8.345e-05
*RC U487:A 8.345e-05
*END

*R_NET data_reg\[1\] 2.293e-02
*DRIVER data_reg_reg_1_:Q
*CELL fd1qd1_hd
*C2_R1_C1 1.146e-02 1.094e-02 1.146e-02 
*LOADS
*RC U424:A 2.509e-04
*RC U578:B 2.509e-04
*RC U668:A 2.509e-04
*RC U669:A 2.509e-04
*END

*R_NET data_reg\[0\] 2.150e-02
*DRIVER data_reg_reg_0_:Q
*CELL fd1qd1_hd
*C2_R1_C1 1.075e-02 1.094e-02 1.075e-02 
*LOADS
*RC U429:A 2.352e-04
*RC U484:A 2.352e-04
*RC U576:D 2.352e-04
*RC U666:A 2.352e-04
*END

*R_NET last_reg 9.960e-03
*DRIVER last_reg_reg:Q
*CELL fd1qd1_hd
*C2_R1_C1 4.980e-03 9.100e-03 4.980e-03 
*LOADS
*RC U592:A 9.064e-05
*RC U643:A 9.064e-05
*END

*R_NET mode_read_reg 1.600e-02
*DRIVER mode_read_reg_reg:Q
*CELL fd1qd1_hd
*C2_R1_C1 8.000e-03 9.460e-03 8.000e-03 
*LOADS
*RC U398:A 1.514e-04
*RC U516:B 1.514e-04
*RC U542:A 1.514e-04
*END

*R_NET mode_write_multiple_reg 5.220e-03
*DRIVER mode_write_multiple_reg_reg:Q
*CELL fd1qd1_hd
*C2_R1_C1 2.610e-03 7.370e-03 2.610e-03 
*LOADS
*RC U591:A 3.847e-05
*END

*R_NET mode_stop_reg 9.170e-03
*DRIVER mode_stop_reg_reg:Q
*CELL fd1qd1_hd
*C2_R1_C1 4.585e-03 9.100e-03 4.585e-03 
*LOADS
*RC U428:A 8.345e-05
*RC U494:A 8.345e-05
*END

*R_NET bit_count_reg\[3\] 1.640e-02
*DRIVER bit_count_reg_reg_3_:Q
*CELL fd1qd1_hd
*C2_R1_C1 8.200e-03 9.460e-03 8.200e-03 
*LOADS
*RC U464:A 1.551e-04
*RC U551:A 1.551e-04
*RC U582:B 1.551e-04
*END

*R_NET bit_count_reg\[2\] 1.027e-02
*DRIVER bit_count_reg_reg_2_:Q
*CELL fd1qd1_hd
*C2_R1_C1 5.135e-03 9.100e-03 5.135e-03 
*LOADS
*RC U465:A 9.346e-05
*RC U578:C 9.346e-05
*END

*R_NET bit_count_reg\[1\] 2.206e-02
*DRIVER bit_count_reg_reg_1_:Q
*CELL fd1qd1_hd
*C2_R1_C1 1.103e-02 1.094e-02 1.103e-02 
*LOADS
*RC U359:B 2.413e-04
*RC U496:B 2.413e-04
*RC U569:A 2.413e-04
*RC U574:A 2.413e-04
*END

*R_NET bit_count_reg\[0\] 2.668e-02
*DRIVER bit_count_reg_reg_0_:Q
*CELL fd1qd1_hd
*C2_R1_C1 1.334e-02 1.549e-02 1.334e-02 
*LOADS
*RC U359:A 4.133e-04
*RC U496:A 4.133e-04
*RC U570:A 4.133e-04
*RC U573:A 4.133e-04
*RC U640:A 4.133e-04
*END

*R_NET state_reg\[3\] 3.282e-02
*DRIVER state_reg_reg_3_:Q
*CELL fd1qd1_hd
*C2_R1_C1 1.641e-02 1.674e-02 1.641e-02 
*LOADS
*RC U363:A 5.494e-04
*RC U470:A 5.494e-04
*RC U486:A 5.494e-04
*RC U499:B 5.494e-04
*RC U549:C 5.494e-04
*RC U622:A 5.494e-04
*END

*R_NET state_reg\[2\] 2.226e-02
*DRIVER state_reg_reg_2_:Q
*CELL fd1qd1_hd
*C2_R1_C1 1.113e-02 1.094e-02 1.113e-02 
*LOADS
*RC U371:A 2.435e-04
*RC U467:A 2.435e-04
*RC U500:A 2.435e-04
*RC U549:A 2.435e-04
*END

*R_NET state_reg\[1\] 2.242e-02
*DRIVER state_reg_reg_1_:Q
*CELL fd1qd1_hd
*C2_R1_C1 1.121e-02 1.094e-02 1.121e-02 
*LOADS
*RC U356:A 2.453e-04
*RC U468:A 2.453e-04
*RC U500:B 2.453e-04
*RC U594:A 2.453e-04
*END

*R_NET state_reg\[0\] 1.560e-02
*DRIVER state_reg_reg_0_:Q
*CELL fd1qd1_hd
*C2_R1_C1 7.800e-03 9.460e-03 7.800e-03 
*LOADS
*RC U358:A 1.476e-04
*RC U495:A 1.476e-04
*RC U499:A 1.476e-04
*END

*R_NET phy_state_reg\[3\] 2.730e-02
*DRIVER phy_state_reg_reg_3_:Q
*CELL fd1qd1_hd
*C2_R1_C1 1.365e-02 1.549e-02 1.365e-02 
*LOADS
*RC U461:A 4.229e-04
*RC U466:A 4.229e-04
*RC U524:A 4.229e-04
*RC U562:A 4.229e-04
*RC U602:A 4.229e-04
*END

*R_NET phy_state_reg\[2\] 2.195e-02
*DRIVER phy_state_reg_reg_2_:Q
*CELL fd1qd1_hd
*C2_R1_C1 1.097e-02 1.094e-02 1.097e-02 
*LOADS
*RC U382:A 2.401e-04
*RC U491:A 2.401e-04
*RC U498:A 2.401e-04
*RC U611:A 2.401e-04
*END

*R_NET phy_state_reg\[1\] 2.251e-02
*DRIVER phy_state_reg_reg_1_:Q
*CELL fd1qd1_hd
*C2_R1_C1 1.125e-02 1.094e-02 1.125e-02 
*LOADS
*RC U472:A 2.463e-04
*RC U498:B 2.463e-04
*RC U561:B 2.463e-04
*RC U590:A 2.463e-04
*END

*R_NET phy_state_reg\[0\] 9.960e-03
*DRIVER phy_state_reg_reg_0_:Q
*CELL fd1qd1_hd
*C2_R1_C1 4.980e-03 9.100e-03 4.980e-03 
*LOADS
*RC U462:A 9.064e-05
*RC U589:A 9.064e-05
*END

*R_NET phy_rx_data_reg 9.170e-03
*DRIVER phy_rx_data_reg_reg:Q
*CELL fd1eqd1_hd
*C2_R1_C1 4.585e-03 9.100e-03 4.585e-03 
*LOADS
*RC U483:A 8.345e-05
*RC U425:A 8.345e-05
*END

*R_NET delay_reg\[16\] 9.120e-03
*DRIVER delay_reg_reg_16_:Q
*CELL fd1qd1_hd
*C2_R1_C1 4.560e-03 9.100e-03 4.560e-03 
*LOADS
*RC U199:C 8.299e-05
*RC U473:A 8.299e-05
*END

*R_NET delay_reg\[15\] 1.463e-02
*DRIVER delay_reg_reg_15_:Q
*CELL fd1qd1_hd
*C2_R1_C1 7.315e-03 9.460e-03 7.315e-03 
*LOADS
*RC U388:A 1.384e-04
*RC U120:C 1.384e-04
*RC U506:A 1.384e-04
*END

*R_NET delay_reg\[14\] 9.120e-03
*DRIVER delay_reg_reg_14_:Q
*CELL fd1qd1_hd
*C2_R1_C1 4.560e-03 9.100e-03 4.560e-03 
*LOADS
*RC U119:C 8.299e-05
*RC U474:A 8.299e-05
*END

*R_NET delay_reg\[13\] 1.463e-02
*DRIVER delay_reg_reg_13_:Q
*CELL fd1qd1_hd
*C2_R1_C1 7.315e-03 9.460e-03 7.315e-03 
*LOADS
*RC U375:A 1.384e-04
*RC U118:C 1.384e-04
*RC U504:A 1.384e-04
*END

*R_NET delay_reg\[12\] 9.120e-03
*DRIVER delay_reg_reg_12_:Q
*CELL fd1qd1_hd
*C2_R1_C1 4.560e-03 9.100e-03 4.560e-03 
*LOADS
*RC U117:C 8.299e-05
*RC U475:A 8.299e-05
*END

*R_NET delay_reg\[11\] 1.463e-02
*DRIVER delay_reg_reg_11_:Q
*CELL fd1qd1_hd
*C2_R1_C1 7.315e-03 9.460e-03 7.315e-03 
*LOADS
*RC U376:A 1.384e-04
*RC U116:C 1.384e-04
*RC U502:A 1.384e-04
*END

*R_NET delay_reg\[10\] 9.120e-03
*DRIVER delay_reg_reg_10_:Q
*CELL fd1qd1_hd
*C2_R1_C1 4.560e-03 9.100e-03 4.560e-03 
*LOADS
*RC U115:C 8.299e-05
*RC U476:A 8.299e-05
*END

*R_NET delay_reg\[9\] 1.463e-02
*DRIVER delay_reg_reg_9_:Q
*CELL fd1qd1_hd
*C2_R1_C1 7.315e-03 9.460e-03 7.315e-03 
*LOADS
*RC U114:C 1.384e-04
*RC U438:A 1.384e-04
*RC U512:A 1.384e-04
*END

*R_NET delay_reg\[8\] 1.027e-02
*DRIVER delay_reg_reg_8_:Q
*CELL fd1qd1_hd
*C2_R1_C1 5.135e-03 9.100e-03 5.135e-03 
*LOADS
*RC U477:A 9.346e-05
*RC U113:C 9.346e-05
*END

*R_NET delay_reg\[7\] 1.569e-02
*DRIVER delay_reg_reg_7_:Q
*CELL fd1qd1_hd
*C2_R1_C1 7.845e-03 9.460e-03 7.845e-03 
*LOADS
*RC U103:C 1.484e-04
*RC U439:A 1.484e-04
*RC U654:A 1.484e-04
*END

*R_NET delay_reg\[6\] 1.483e-02
*DRIVER delay_reg_reg_6_:Q
*CELL fd1qd1_hd
*C2_R1_C1 7.415e-03 9.460e-03 7.415e-03 
*LOADS
*RC U100:D 1.403e-04
*RC U440:A 1.403e-04
*RC U659:C 1.403e-04
*END

*R_NET delay_reg\[5\] 2.615e-02
*DRIVER delay_reg_reg_5_:Q
*CELL fd1qd1_hd
*C2_R1_C1 1.307e-02 1.549e-02 1.307e-02 
*LOADS
*RC U412:A 4.051e-04
*RC U97:D 4.051e-04
*RC U440:B 4.051e-04
*RC U659:A 4.051e-04
*RC U661:A 4.051e-04
*END

*R_NET delay_reg\[4\] 1.505e-02
*DRIVER delay_reg_reg_4_:Q
*CELL fd1qd1_hd
*C2_R1_C1 7.525e-03 9.460e-03 7.525e-03 
*LOADS
*RC U413:A 1.424e-04
*RC U94:D 1.424e-04
*RC U435:A 1.424e-04
*END

*R_NET delay_reg\[3\] 1.027e-02
*DRIVER delay_reg_reg_3_:Q
*CELL fd1qd1_hd
*C2_R1_C1 5.135e-03 9.100e-03 5.135e-03 
*LOADS
*RC U449:A 9.346e-05
*RC U92:C 9.346e-05
*END

*R_NET delay_reg\[2\] 1.578e-02
*DRIVER delay_reg_reg_2_:Q
*CELL fd1qd1_hd
*C2_R1_C1 7.890e-03 9.460e-03 7.890e-03 
*LOADS
*RC U442:A 1.493e-04
*RC U509:A 1.493e-04
*RC U89:C 1.493e-04
*END

*R_NET delay_reg\[1\] 1.027e-02
*DRIVER delay_reg_reg_1_:Q
*CELL fd1qd1_hd
*C2_R1_C1 5.135e-03 9.100e-03 5.135e-03 
*LOADS
*RC U441:A 9.346e-05
*RC U87:C 9.346e-05
*END

*R_NET delay_reg\[0\] 9.120e-03
*DRIVER delay_reg_reg_0_:Q
*CELL fd1qd1_hd
*C2_R1_C1 4.560e-03 9.100e-03 4.560e-03 
*LOADS
*RC U85:C 8.299e-05
*RC U436:A 8.299e-05
*END

*R_NET delay_scl_reg 1.019e-02
*DRIVER delay_scl_reg_reg:Q
*CELL fd1qd1_hd
*C2_R1_C1 5.095e-03 9.100e-03 5.095e-03 
*LOADS
*RC U478:A 9.273e-05
*RC U609:A 9.273e-05
*END

*R_NET N500 1.547e-02
*DRIVER U436:Y
*CELL ivd1_hd
*C2_R1_C1 7.735e-03 9.460e-03 7.735e-03 
*LOADS
*RC U364:B 1.463e-04
*RC U85:B 1.463e-04
*RC U508:A 1.463e-04
*END

*R_NET N501 5.750e-03
*DRIVER U508:Y
*CELL oa21d1_hd
*C2_R1_C1 2.875e-03 7.370e-03 2.875e-03 
*LOADS
*RC U87:A 4.238e-05
*END

*R_NET N502 5.800e-03
*DRIVER U509:Y
*CELL scg6d1_hd
*C2_R1_C1 2.900e-03 7.370e-03 2.900e-03 
*LOADS
*RC U89:B 4.275e-05
*END

*R_NET N503 5.750e-03
*DRIVER U510:Y
*CELL oa21d1_hd
*C2_R1_C1 2.875e-03 7.370e-03 2.875e-03 
*LOADS
*RC U92:A 4.238e-05
*END

*R_NET N508 5.800e-03
*DRIVER U511:Y
*CELL oa21d1_hd
*C2_R1_C1 2.900e-03 7.370e-03 2.900e-03 
*LOADS
*RC U113:B 4.275e-05
*END

*R_NET N509 4.780e-03
*DRIVER U512:Y
*CELL scg6d1_hd
*C2_R1_C1 2.390e-03 7.370e-03 2.390e-03 
*LOADS
*RC U114:B 3.523e-05
*END

*R_NET N510 4.780e-03
*DRIVER U501:Y
*CELL oa21d1_hd
*C2_R1_C1 2.390e-03 7.370e-03 2.390e-03 
*LOADS
*RC U115:B 3.523e-05
*END

*R_NET N511 4.780e-03
*DRIVER U502:Y
*CELL scg6d1_hd
*C2_R1_C1 2.390e-03 7.370e-03 2.390e-03 
*LOADS
*RC U116:B 3.523e-05
*END

*R_NET N512 4.780e-03
*DRIVER U503:Y
*CELL oa21d1_hd
*C2_R1_C1 2.390e-03 7.370e-03 2.390e-03 
*LOADS
*RC U117:B 3.523e-05
*END

*R_NET N513 4.780e-03
*DRIVER U504:Y
*CELL scg6d1_hd
*C2_R1_C1 2.390e-03 7.370e-03 2.390e-03 
*LOADS
*RC U118:B 3.523e-05
*END

*R_NET N514 4.780e-03
*DRIVER U505:Y
*CELL oa21d1_hd
*C2_R1_C1 2.390e-03 7.370e-03 2.390e-03 
*LOADS
*RC U119:B 3.523e-05
*END

*R_NET N515 4.780e-03
*DRIVER U506:Y
*CELL scg6d1_hd
*C2_R1_C1 2.390e-03 7.370e-03 2.390e-03 
*LOADS
*RC U120:B 3.523e-05
*END

*R_NET N516 4.780e-03
*DRIVER U507:Y
*CELL oa21d1_hd
*C2_R1_C1 2.390e-03 7.370e-03 2.390e-03 
*LOADS
*RC U199:B 3.523e-05
*END

*R_NET N705 4.680e-03
*DRIVER U339:Y
*CELL scg21d1_hd
*C2_R1_C1 2.340e-03 7.370e-03 2.340e-03 
*LOADS
*RC cmd_ready_reg_reg:D 3.449e-05
*END

*R_NET N706 4.680e-03
*DRIVER U325:Y
*CELL ao21d1_hd
*C2_R1_C1 2.340e-03 7.370e-03 2.340e-03 
*LOADS
*RC data_in_ready_reg_reg:D 3.449e-05
*END

*R_NET N707 4.680e-03
*DRIVER U318:Y
*CELL oa22d1_hd
*C2_R1_C1 2.340e-03 7.370e-03 2.340e-03 
*LOADS
*RC data_out_valid_reg_reg:D 3.449e-05
*END

*R_NET N710 4.680e-03
*DRIVER U315:Y
*CELL ao21d1_hd
*C2_R1_C1 2.340e-03 7.370e-03 2.340e-03 
*LOADS
*RC busy_reg_reg:D 3.449e-05
*END

*R_NET N713 4.680e-03
*DRIVER U312:Y
*CELL ao211d1_hd
*C2_R1_C1 2.340e-03 7.370e-03 2.340e-03 
*LOADS
*RC missed_ack_reg_reg:D 3.449e-05
*END

*R_NET n7 3.768e-02
*DRIVER U396:Y
*CELL nr2bd1_hd
*C2_R1_C1 1.884e-02 1.715e-02 1.884e-02 
*LOADS
*RC U420:A 6.462e-04
*RC U457:A 6.462e-04
*RC U609:C 6.462e-04
*RC U653:C 6.462e-04
*RC U655:A 6.462e-04
*RC U112:A 6.462e-04
*RC U201:D 6.462e-04
*END

*R_NET n10 2.259e-02
*DRIVER U521:Y
*CELL ao21d1_hd
*C2_R1_C1 1.130e-02 1.094e-02 1.130e-02 
*LOADS
*RC U362:A 2.471e-04
*RC U471:A 2.471e-04
*RC U555:A 2.471e-04
*RC U339:C 2.471e-04
*END

*R_NET n14 1.720e-02
*DRIVER U480:Y
*CELL ivd1_hd
*C2_R1_C1 8.600e-03 9.460e-03 8.600e-03 
*LOADS
*RC U626:B 1.627e-04
*RC U634:C 1.627e-04
*RC U307:B 1.627e-04
*END

*R_NET n17 2.327e-02
*DRIVER U565:Y
*CELL nr2d1_hd
*C2_R1_C1 1.163e-02 1.094e-02 1.163e-02 
*LOADS
*RC U444:AN 2.546e-04
*RC U618:A 2.546e-04
*RC U653:A 2.546e-04
*RC U195:A 2.546e-04
*END

*R_NET n19 2.214e-02
*DRIVER U466:Y
*CELL nr2d1_hd
*C2_R1_C1 1.107e-02 1.094e-02 1.107e-02 
*LOADS
*RC U386:A 2.422e-04
*RC U408:B 2.422e-04
*RC U445:A 2.422e-04
*RC U664:B 2.422e-04
*END

*R_NET n22 3.281e-02
*DRIVER U461:Y
*CELL ivd1_hd
*C2_R1_C1 1.640e-02 1.674e-02 1.640e-02 
*LOADS
*RC U393:A 5.492e-04
*RC U419:B 5.492e-04
*RC U563:A 5.492e-04
*RC U589:B 5.492e-04
*RC U619:B 5.492e-04
*RC U172:B 5.492e-04
*END

*R_NET n24 2.825e-02
*DRIVER U491:Y
*CELL ivd1_hd
*C2_R1_C1 1.413e-02 1.549e-02 1.413e-02 
*LOADS
*RC U561:A 4.376e-04
*RC U588:A 4.376e-04
*RC U607:B 4.376e-04
*RC U615:C 4.376e-04
*RC U176:B 4.376e-04
*END

*R_NET n26 3.353e-02
*DRIVER U472:Y
*CELL ivd1_hd
*C2_R1_C1 1.677e-02 1.674e-02 1.677e-02 
*LOADS
*RC U383:B 5.613e-04
*RC U564:B 5.613e-04
*RC U588:B 5.613e-04
*RC U603:A 5.613e-04
*RC U611:B 5.613e-04
*RC U182:B 5.613e-04
*END

*R_NET n27 2.770e-02
*DRIVER U462:Y
*CELL ivd1_hd
*C2_R1_C1 1.385e-02 1.549e-02 1.385e-02 
*LOADS
*RC U393:B 4.291e-04
*RC U562:B 4.291e-04
*RC U563:B 4.291e-04
*RC U617:A 4.291e-04
*RC U185:B 4.291e-04
*END

*R_NET n35 2.265e-02
*DRIVER U470:Y
*CELL ivd1_hd
*C2_R1_C1 1.132e-02 1.094e-02 1.132e-02 
*LOADS
*RC U358:B 2.478e-04
*RC U485:A 2.478e-04
*RC U525:B 2.478e-04
*RC U278:C 2.478e-04
*END

*R_NET n36 3.341e-02
*DRIVER U467:Y
*CELL ivd1_hd
*C2_R1_C1 1.670e-02 1.674e-02 1.670e-02 
*LOADS
*RC U356:B 5.593e-04
*RC U485:B 5.593e-04
*RC U515:A 5.593e-04
*RC U523:B 5.593e-04
*RC U594:D 5.593e-04
*RC U167:C 5.593e-04
*END

*R_NET n38 2.794e-02
*DRIVER U468:Y
*CELL ivd1_hd
*C2_R1_C1 1.397e-02 1.549e-02 1.397e-02 
*LOADS
*RC U371:B 4.328e-04
*RC U515:B 4.328e-04
*RC U527:B 4.328e-04
*RC U549:B 4.328e-04
*RC U162:C 4.328e-04
*END

*R_NET n39 1.618e-02
*DRIVER U495:Y
*CELL ivd1_hd
*C2_R1_C1 8.090e-03 9.460e-03 8.090e-03 
*LOADS
*RC U363:B 1.531e-04
*RC U525:A 1.531e-04
*RC U156:C 1.531e-04
*END

*R_NET n40 1.089e-02
*DRIVER U483:Y
*CELL ivd1_hd
*C2_R1_C1 5.445e-03 9.100e-03 5.445e-03 
*LOADS
*RC U667:A 9.910e-05
*RC U312:C 9.910e-05
*END

*R_NET n70 6.580e-03
*DRIVER U665:Y
*CELL nr3d1_hd
*C2_R1_C1 3.290e-03 7.370e-03 3.290e-03 
*LOADS
*RC phy_rx_data_reg_reg:E 4.849e-05
*END

*R_NET n72 2.196e-02
*DRIVER U478:Y
*CELL ivd1_hd
*C2_R1_C1 1.098e-02 1.094e-02 1.098e-02 
*LOADS
*RC U367:A 2.402e-04
*RC U396:AN 2.402e-04
*RC U263:A 2.402e-04
*RC U93:A 2.402e-04
*END

*R_NET n75 1.072e-02
*DRIVER U404:Y
*CELL clknd2d1_hd
*C2_R1_C1 5.360e-03 9.100e-03 5.360e-03 
*LOADS
*RC U458:D 9.755e-05
*RC U82:A 9.755e-05
*END

*R_NET n76 2.892e-02
*DRIVER U405:Y
*CELL clknd2d1_hd
*C2_R1_C1 1.446e-02 1.549e-02 1.446e-02 
*LOADS
*RC U185:D 4.480e-04
*RC U182:D 4.480e-04
*RC U176:D 4.480e-04
*RC U172:D 4.480e-04
*RC U82:B 4.480e-04
*END

*R_NET n77 4.680e-03
*DRIVER U83:Y
*CELL oa21d1_hd
*C2_R1_C1 2.340e-03 7.370e-03 2.340e-03 
*LOADS
*RC U82:D 3.449e-05
*END

*R_NET n78 5.920e-03
*DRIVER U664:Y
*CELL nr4d1_hd
*C2_R1_C1 2.960e-03 7.370e-03 2.960e-03 
*LOADS
*RC U83:B 4.363e-05
*END

*R_NET n79 5.163e-02
*DRIVER U409:Y
*CELL nr2d1_hd
*C2_R1_C1 2.582e-02 2.090e-02 2.582e-02 
*LOADS
*RC U405:B 1.079e-03
*RC U422:A 1.079e-03
*RC U206:A 1.079e-03
*RC U195:C 1.079e-03
*RC U185:A 1.079e-03
*RC U182:A 1.079e-03
*RC U176:A 1.079e-03
*RC U172:A 1.079e-03
*RC U83:C 1.079e-03
*END

*R_NET n80 2.412e-02
*DRIVER U459:Y
*CELL nr2bd1_hd
*C2_R1_C1 1.206e-02 1.094e-02 1.206e-02 
*LOADS
*RC U613:C 2.639e-04
*RC U655:B 2.639e-04
*RC U664:A 2.639e-04
*RC U112:C 2.639e-04
*END

*R_NET n83 6.419e-02
*DRIVER U390:Y
*CELL nr2ad1_hd
*C2_R1_C1 3.209e-02 2.212e-02 3.209e-02 
*LOADS
*RC U409:B 1.420e-03
*RC U199:A 1.420e-03
*RC U116:A 1.420e-03
*RC U120:A 1.420e-03
*RC U118:A 1.420e-03
*RC U85:A 1.420e-03
*RC U119:A 1.420e-03
*RC U114:A 1.420e-03
*RC U115:A 1.420e-03
*RC U117:A 1.420e-03
*RC U113:A 1.420e-03
*RC U92:B 1.420e-03
*RC U89:A 1.420e-03
*RC U87:B 1.420e-03
*END

*R_NET n84 5.162e-02
*DRIVER U391:Y
*CELL nd2bd1_hd
*C2_R1_C1 2.581e-02 2.139e-02 2.581e-02 
*LOADS
*RC U199:D 1.104e-03
*RC U116:D 1.104e-03
*RC U120:D 1.104e-03
*RC U118:D 1.104e-03
*RC U85:D 1.104e-03
*RC U119:D 1.104e-03
*RC U114:D 1.104e-03
*RC U115:D 1.104e-03
*RC U117:D 1.104e-03
*RC U113:D 1.104e-03
*RC U89:D 1.104e-03
*END

*R_NET n85 5.200e-03
*DRIVER U87:Y
*CELL ao22d1_hd
*C2_R1_C1 2.600e-03 7.370e-03 2.600e-03 
*LOADS
*RC U410:A 3.832e-05
*END

*R_NET n86 9.600e-03
*DRIVER U366:Y
*CELL clknd2d1_hd
*C2_R1_C1 4.800e-03 9.100e-03 4.800e-03 
*LOADS
*RC U410:B 8.736e-05
*RC U416:B 8.736e-05
*END

*R_NET n87 1.102e-02
*DRIVER U93:Y
*CELL ao21d1_hd
*C2_R1_C1 5.510e-03 9.100e-03 5.510e-03 
*LOADS
*RC U92:D 1.003e-04
*RC U87:D 1.003e-04
*END

*R_NET n88 5.200e-03
*DRIVER U89:Y
*CELL ao22d1_hd
*C2_R1_C1 2.600e-03 7.370e-03 2.600e-03 
*LOADS
*RC U415:A 3.832e-05
*END

*R_NET n89 9.600e-03
*DRIVER U112:Y
*CELL nd3d1_hd
*C2_R1_C1 4.800e-03 9.100e-03 4.800e-03 
*LOADS
*RC U415:B 8.736e-05
*RC U417:B 8.736e-05
*END

*R_NET n90 5.200e-03
*DRIVER U92:Y
*CELL ao22d1_hd
*C2_R1_C1 2.600e-03 7.370e-03 2.600e-03 
*LOADS
*RC U416:A 3.832e-05
*END

*R_NET n91 1.005e-02
*DRIVER U652:Y
*CELL ao21d1_hd
*C2_R1_C1 5.025e-03 9.100e-03 5.025e-03 
*LOADS
*RC U366:B 9.146e-05
*RC U655:C 9.146e-05
*END

*R_NET n92 5.910e-03
*DRIVER U653:Y
*CELL oa21d1_hd
*C2_R1_C1 2.955e-03 7.370e-03 2.955e-03 
*LOADS
*RC U93:B 4.356e-05
*END

*R_NET n93 4.780e-03
*DRIVER U662:Y
*CELL oa211d1_hd
*C2_R1_C1 2.390e-03 7.370e-03 2.390e-03 
*LOADS
*RC U94:B 3.523e-05
*END

*R_NET n94 2.878e-02
*DRIVER U263:Y
*CELL nr2d1_hd
*C2_R1_C1 1.439e-02 1.674e-02 1.439e-02 
*LOADS
*RC U391:AN 4.818e-04
*RC U409:A 4.818e-04
*RC U103:D 4.818e-04
*RC U100:C 4.818e-04
*RC U94:C 4.818e-04
*RC U97:C 4.818e-04
*END

*R_NET n97 4.780e-03
*DRIVER U411:Y
*CELL clknd2d1_hd
*C2_R1_C1 2.390e-03 7.370e-03 2.390e-03 
*LOADS
*RC U97:B 3.523e-05
*END

*R_NET n99 4.780e-03
*DRIVER U660:Y
*CELL oa211d1_hd
*C2_R1_C1 2.390e-03 7.370e-03 2.390e-03 
*LOADS
*RC U100:B 3.523e-05
*END

*R_NET n101 4.780e-03
*DRIVER U656:Y
*CELL oa21d1_hd
*C2_R1_C1 2.390e-03 7.370e-03 2.390e-03 
*LOADS
*RC U103:B 3.523e-05
*END

*R_NET n103 1.776e-02
*DRIVER U601:Y
*CELL nd2bd1_hd
*C2_R1_C1 8.880e-03 9.460e-03 8.880e-03 
*LOADS
*RC U602:D 1.680e-04
*RC U653:B 1.680e-04
*RC U201:B 1.680e-04
*END

*R_NET n104 3.055e-02
*DRIVER U367:Y
*CELL clknd2d1_hd
*C2_R1_C1 1.527e-02 1.549e-02 1.527e-02 
*LOADS
*RC U390:B 4.732e-04
*RC U656:B 4.732e-04
*RC U658:A 4.732e-04
*RC U660:B 4.732e-04
*RC U662:A 4.732e-04
*END

*R_NET n111 5.200e-03
*DRIVER U113:Y
*CELL ao22d1_hd
*C2_R1_C1 2.600e-03 7.370e-03 2.600e-03 
*LOADS
*RC U417:A 3.832e-05
*END

*R_NET n122 2.291e-02
*DRIVER U445:Y
*CELL ivd1_hd
*C2_R1_C1 1.145e-02 1.094e-02 1.145e-02 
*LOADS
*RC U374:B 2.506e-04
*RC U450:A 2.506e-04
*RC U566:B 2.506e-04
*RC U641:C 2.506e-04
*END

*R_NET n125 2.715e-02
*DRIVER U486:Y
*CELL nr2d1_hd
*C2_R1_C1 1.358e-02 1.549e-02 1.358e-02 
*LOADS
*RC U454:B 4.206e-04
*RC U523:C 4.206e-04
*RC U536:AN 4.206e-04
*RC U635:A 4.206e-04
*RC U339:A 4.206e-04
*END

*R_NET n131 1.599e-02
*DRIVER U402:Y
*CELL clknd2d1_hd
*C2_R1_C1 7.995e-03 9.460e-03 7.995e-03 
*LOADS