*SPEF "IEEE 1481-1999"
*DESIGN "i2c_master"
*DATE "Tue Jun  9 04:14:29 2020"
*VENDOR "SYNOPSYS INC"
*PROGRAM "Synopsys Design Compiler cmos"
*VERSION "F-2011.09-SP5-3"
*DESIGN_FLOW "SYNTHESIS"
*DIVIDER /
*DELIMITER :
*BUS_DELIMITER []
*T_UNIT 1.0 NS
*C_UNIT 1.0 PF
*R_UNIT 1.0 KOHM
*L_UNIT 1.0 HENRY

*PORTS

i_CLK I *L 0.000e+00 *S 0.000e+00 0.000e+00 
i_RSTN I *L 0.000e+00 *S 0.000e+00 0.000e+00 
cmd_start I *L 0.000e+00 *S 0.000e+00 0.000e+00 
cmd_read I *L 0.000e+00 *S 0.000e+00 0.000e+00 
cmd_write I *L 0.000e+00 *S 0.000e+00 0.000e+00 
cmd_write_multiple I *L 0.000e+00 *S 0.000e+00 0.000e+00 
cmd_stop I *L 0.000e+00 *S 0.000e+00 0.000e+00 
cmd_valid I *L 0.000e+00 *S 0.000e+00 0.000e+00 
cmd_ready O *L 1.035e-02 *S 2.079e-01 1.508e-01 
data_in\[7\] I *L 0.000e+00 *S 0.000e+00 0.000e+00 
data_in\[6\] I *L 0.000e+00 *S 0.000e+00 0.000e+00 
data_in\[5\] I *L 0.000e+00 *S 0.000e+00 0.000e+00 
data_in\[4\] I *L 0.000e+00 *S 0.000e+00 0.000e+00 
data_in\[3\] I *L 0.000e+00 *S 0.000e+00 0.000e+00 
data_in\[2\] I *L 0.000e+00 *S 0.000e+00 0.000e+00 
data_in\[1\] I *L 0.000e+00 *S 0.000e+00 0.000e+00 
data_in\[0\] I *L 0.000e+00 *S 0.000e+00 0.000e+00 
data_in_valid I *L 0.000e+00 *S 0.000e+00 0.000e+00 
data_in_ready O *L 1.035e-02 *S 1.666e-01 1.234e-01 
data_in_last I *L 0.000e+00 *S 0.000e+00 0.000e+00 
data_out\[7\] O *L 1.035e-02 *S 1.561e-01 1.293e-01 
data_out\[6\] O *L 1.035e-02 *S 1.561e-01 1.293e-01 
data_out\[5\] O *L 1.035e-02 *S 1.561e-01 1.293e-01 
data_out\[4\] O *L 1.035e-02 *S 1.561e-01 1.293e-01 
data_out\[3\] O *L 1.035e-02 *S 1.561e-01 1.293e-01 
data_out\[2\] O *L 1.035e-02 *S 1.561e-01 1.293e-01 
data_out\[1\] O *L 1.035e-02 *S 1.561e-01 1.293e-01 
data_out\[0\] O *L 1.035e-02 *S 1.561e-01 1.293e-01 
data_out_valid O *L 1.035e-02 *S 2.163e-01 1.562e-01 
data_out_ready I *L 0.000e+00 *S 0.000e+00 0.000e+00 
data_out_last O *L 1.035e-02 *S 1.557e-01 1.289e-01 
scl_i I *L 0.000e+00 *S 0.000e+00 0.000e+00 
scl_o O *L 1.035e-02 *S 2.536e-01 1.929e-01 
scl_t O *L 1.035e-02 *S 1.130e-01 7.848e-02 
sda_i I *L 0.000e+00 *S 0.000e+00 0.000e+00 
sda_o O *L 1.035e-02 *S 2.148e-01 1.599e-01 
sda_t O *L 1.035e-02 *S 1.619e-01 1.056e-01 
busy O *L 1.035e-02 *S 1.320e-01 1.022e-01 
bus_control O *L 1.035e-02 *S 1.665e-01 1.292e-01 
bus_active O *L 1.035e-02 *S 2.609e-01 1.975e-01 
missed_ack O *L 1.035e-02 *S 1.347e-01 1.012e-01 

*R_NET N92 5.353e-02
*DRIVER U459:Y
*CELL nid1_hd
*C2_R1_C1 2.677e-02 2.090e-02 2.677e-02 
*LOADS
*RC U566:C 1.119e-03
*RC U11:B 1.119e-03
*RC U14:D 1.119e-03
*RC U83:C 1.119e-03
*RC U169:A 1.119e-03
*RC U174:B 1.119e-03
*RC U177:B 1.119e-03
*RC U184:B 1.119e-03
*RC U186:B 1.119e-03
*END

*R_NET i_CLK 2.785e-01
*DRIVER i_CLK
*CELL NULL
*C2_R1_C1 1.392e-01 7.031e-02 1.392e-01 
*LOADS
*RC sda_i_reg_reg:CK 1.958e-02
*RC scl_i_reg_reg:CK 1.958e-02
*RC bus_control_reg_reg:CK 1.958e-02
*RC delay_reg_reg_16_:CK 1.958e-02
*RC sda_o_reg_reg:CK 1.958e-02
*RC delay_reg_reg_3_:CK 1.958e-02
*RC delay_reg_reg_4_:CK 1.958e-02
*RC delay_reg_reg_5_:CK 1.958e-02
*RC delay_reg_reg_6_:CK 1.958e-02
*RC delay_reg_reg_8_:CK 1.958e-02
*RC delay_reg_reg_9_:CK 1.958e-02
*RC delay_reg_reg_10_:CK 1.958e-02
*RC delay_reg_reg_11_:CK 1.958e-02
*RC delay_reg_reg_12_:CK 1.958e-02
*RC delay_reg_reg_13_:CK 1.958e-02
*RC delay_reg_reg_14_:CK 1.958e-02
*RC delay_reg_reg_15_:CK 1.958e-02
*RC delay_reg_reg_1_:CK 1.958e-02
*RC delay_reg_reg_7_:CK 1.958e-02
*RC delay_reg_reg_2_:CK 1.958e-02
*RC delay_reg_reg_0_:CK 1.958e-02
*RC phy_state_reg_reg_0_:CK 1.958e-02
*RC phy_state_reg_reg_2_:CK 1.958e-02
*RC phy_state_reg_reg_3_:CK 1.958e-02
*RC phy_state_reg_reg_1_:CK 1.958e-02
*RC data_reg_reg_1_:CK 1.958e-02
*RC data_reg_reg_3_:CK 1.958e-02
*RC data_reg_reg_5_:CK 1.958e-02
*RC data_reg_reg_7_:CK 1.958e-02
*RC bit_count_reg_reg_3_:CK 1.958e-02
*RC bit_count_reg_reg_1_:CK 1.958e-02
*RC bit_count_reg_reg_2_:CK 1.958e-02
*RC data_reg_reg_0_:CK 1.958e-02
*RC data_reg_reg_2_:CK 1.958e-02
*RC data_reg_reg_4_:CK 1.958e-02
*RC data_reg_reg_6_:CK 1.958e-02
*RC addr_reg_reg_1_:CK 1.958e-02
*RC addr_reg_reg_3_:CK 1.958e-02
*RC addr_reg_reg_4_:CK 1.958e-02
*RC addr_reg_reg_6_:CK 1.958e-02
*RC data_out_reg_reg_0_:CK 1.958e-02
*RC data_out_reg_reg_1_:CK 1.958e-02
*RC data_out_reg_reg_2_:CK 1.958e-02
*RC data_out_reg_reg_3_:CK 1.958e-02
*RC data_out_reg_reg_4_:CK 1.958e-02
*RC data_out_reg_reg_5_:CK 1.958e-02
*RC data_out_reg_reg_6_:CK 1.958e-02
*RC data_out_reg_reg_7_:CK 1.958e-02
*RC data_out_last_reg_reg:CK 1.958e-02
*RC mode_read_reg_reg:CK 1.958e-02
*RC mode_stop_reg_reg:CK 1.958e-02
*RC mode_write_multiple_reg_reg:CK 1.958e-02
*RC bit_count_reg_reg_0_:CK 1.958e-02
*RC last_reg_reg:CK 1.958e-02
*RC phy_rx_data_reg_reg:CK 1.958e-02
*RC state_reg_reg_3_:CK 1.958e-02
*RC state_reg_reg_2_:CK 1.958e-02
*RC state_reg_reg_1_:CK 1.958e-02
*RC delay_scl_reg_reg:CK 1.958e-02
*RC scl_o_reg_reg:CK 1.958e-02
*RC data_out_valid_reg_reg:CK 1.958e-02
*RC data_in_ready_reg_reg:CK 1.958e-02
*RC cmd_ready_reg_reg:CK 1.958e-02
*RC missed_ack_reg_reg:CK 1.958e-02
*RC last_sda_i_reg_reg:CK 1.958e-02
*RC state_reg_reg_0_:CK 1.958e-02
*RC bus_active_reg_reg:CK 1.958e-02
*RC busy_reg_reg:CK 1.958e-02
*END

*R_NET cmd_start 9.180e-03
*DRIVER cmd_start
*CELL NULL
*C2_R1_C1 4.590e-03 9.100e-03 4.590e-03 
*LOADS
*RC U423:A 8.354e-05
*RC U433:A 8.354e-05
*END

*R_NET cmd_read 2.093e-02
*DRIVER cmd_read
*CELL NULL
*C2_R1_C1 1.046e-02 1.094e-02 1.046e-02 
*LOADS
*RC U427:A 2.290e-04
*RC U600:C 2.290e-04
*RC U792:B 2.290e-04
*RC U843:A 2.290e-04
*END

*R_NET cmd_write 1.502e-02
*DRIVER cmd_write
*CELL NULL
*C2_R1_C1 7.510e-03 9.460e-03 7.510e-03 
*LOADS
*RC U427:B 1.421e-04
*RC U439:A 1.421e-04
*RC U810:B 1.421e-04
*END

*R_NET cmd_write_multiple 1.517e-02
*DRIVER cmd_write_multiple
*CELL NULL
*C2_R1_C1 7.585e-03 9.460e-03 7.585e-03 
*LOADS
*RC U439:B 1.435e-04
*RC U605:C 1.435e-04
*RC U842:B 1.435e-04
*END

*R_NET cmd_stop 8.490e-03
*DRIVER cmd_stop
*CELL NULL
*C2_R1_C1 4.245e-03 9.100e-03 4.245e-03 
*LOADS
*RC U601:C 7.726e-05
*RC U845:A 7.726e-05
*END

*R_NET cmd_valid 9.180e-03
*DRIVER cmd_valid
*CELL NULL
*C2_R1_C1 4.590e-03 9.100e-03 4.590e-03 
*LOADS
*RC U438:A 8.354e-05
*RC U785:B 8.354e-05
*END

*R_NET cmd_ready 2.234e-02
*DRIVER cmd_ready_reg_reg:Q
*CELL fd3d1_hd
*C2_R1_C1 1.117e-02 9.460e-03 1.117e-02 
*LOADS
*RC U772:A 2.113e-04
*RC U785:A 2.113e-04
*RC cmd_ready 2.113e-04
*END

*R_NET data_in\[7\] 5.900e-03
*DRIVER data_in\[7\]
*CELL NULL
*C2_R1_C1 2.950e-03 7.370e-03 2.950e-03 
*LOADS
*RC U232:D 4.348e-05
*END

*R_NET data_in\[6\] 5.900e-03
*DRIVER data_in\[6\]
*CELL NULL
*C2_R1_C1 2.950e-03 7.370e-03 2.950e-03 
*LOADS
*RC U234:D 4.348e-05
*END

*R_NET data_in\[5\] 5.900e-03
*DRIVER data_in\[5\]
*CELL NULL
*C2_R1_C1 2.950e-03 7.370e-03 2.950e-03 
*LOADS
*RC U237:D 4.348e-05
*END

*R_NET data_in\[4\] 5.900e-03
*DRIVER data_in\[4\]
*CELL NULL
*C2_R1_C1 2.950e-03 7.370e-03 2.950e-03 
*LOADS
*RC U239:D 4.348e-05
*END

*R_NET data_in\[3\] 5.900e-03
*DRIVER data_in\[3\]
*CELL NULL
*C2_R1_C1 2.950e-03 7.370e-03 2.950e-03 
*LOADS
*RC U242:D 4.348e-05
*END

*R_NET data_in\[2\] 5.900e-03
*DRIVER data_in\[2\]
*CELL NULL
*C2_R1_C1 2.950e-03 7.370e-03 2.950e-03 
*LOADS
*RC U244:D 4.348e-05
*END

*R_NET data_in\[1\] 5.900e-03
*DRIVER data_in\[1\]
*CELL NULL
*C2_R1_C1 2.950e-03 7.370e-03 2.950e-03 
*LOADS
*RC U247:D 4.348e-05
*END

*R_NET data_in\[0\] 5.900e-03
*DRIVER data_in\[0\]
*CELL NULL
*C2_R1_C1 2.950e-03 7.370e-03 2.950e-03 
*LOADS
*RC U250:D 4.348e-05
*END

*R_NET data_in_valid 4.740e-03
*DRIVER data_in_valid
*CELL NULL
*C2_R1_C1 2.370e-03 7.370e-03 2.370e-03 
*LOADS
*RC U824:B 3.493e-05
*END

*R_NET data_in_ready 1.731e-02
*DRIVER data_in_ready_reg_reg:Q
*CELL fd3d1_hd
*C2_R1_C1 8.655e-03 9.100e-03 8.655e-03 
*LOADS
*RC U824:A 1.575e-04
*RC data_in_ready 1.575e-04
*END

*R_NET data_in_last 4.510e-03
*DRIVER data_in_last
*CELL NULL
*C2_R1_C1 2.255e-03 7.370e-03 2.255e-03 
*LOADS
*RC U229:B 3.324e-05
*END

*R_NET data_out\[7\] 1.740e-02
*DRIVER data_out_reg_reg_7_:Q
*CELL fds2eqd1_hd
*C2_R1_C1 8.700e-03 9.100e-03 8.700e-03 
*LOADS
*RC U595:C 1.583e-04
*RC data_out\[7\] 1.583e-04
*END

*R_NET data_out\[6\] 1.740e-02
*DRIVER data_out_reg_reg_6_:Q
*CELL fds2eqd1_hd
*C2_R1_C1 8.700e-03 9.100e-03 8.700e-03 
*LOADS
*RC U594:C 1.583e-04
*RC data_out\[6\] 1.583e-04
*END

*R_NET data_out\[5\] 1.740e-02
*DRIVER data_out_reg_reg_5_:Q
*CELL fds2eqd1_hd
*C2_R1_C1 8.700e-03 9.100e-03 8.700e-03 
*LOADS
*RC U593:C 1.583e-04
*RC data_out\[5\] 1.583e-04
*END

*R_NET data_out\[4\] 1.740e-02
*DRIVER data_out_reg_reg_4_:Q
*CELL fds2eqd1_hd
*C2_R1_C1 8.700e-03 9.100e-03 8.700e-03 
*LOADS
*RC U592:C 1.583e-04
*RC data_out\[4\] 1.583e-04
*END

*R_NET data_out\[3\] 1.740e-02
*DRIVER data_out_reg_reg_3_:Q
*CELL fds2eqd1_hd
*C2_R1_C1 8.700e-03 9.100e-03 8.700e-03 
*LOADS
*RC U591:C 1.583e-04
*RC data_out\[3\] 1.583e-04
*END

*R_NET data_out\[2\] 1.740e-02
*DRIVER data_out_reg_reg_2_:Q
*CELL fds2eqd1_hd
*C2_R1_C1 8.700e-03 9.100e-03 8.700e-03 
*LOADS
*RC U590:C 1.583e-04
*RC data_out\[2\] 1.583e-04
*END

*R_NET data_out\[1\] 1.740e-02
*DRIVER data_out_reg_reg_1_:Q
*CELL fds2eqd1_hd
*C2_R1_C1 8.700e-03 9.100e-03 8.700e-03 
*LOADS
*RC U589:C 1.583e-04
*RC data_out\[1\] 1.583e-04
*END

*R_NET data_out\[0\] 1.740e-02
*DRIVER data_out_reg_reg_0_:Q
*CELL fds2eqd1_hd
*C2_R1_C1 8.700e-03 9.100e-03 8.700e-03 
*LOADS
*RC U588:C 1.583e-04
*RC data_out\[0\] 1.583e-04
*END

*R_NET data_out_valid 2.339e-02
*DRIVER data_out_valid_reg_reg:Q
*CELL fd3d1_hd
*C2_R1_C1 1.170e-02 9.460e-03 1.170e-02 
*LOADS
*RC U617:A 2.213e-04
*RC U110:B 2.213e-04
*RC data_out_valid 2.213e-04
*END

*R_NET data_out_ready 5.220e-03
*DRIVER data_out_ready
*CELL NULL
*C2_R1_C1 2.610e-03 7.370e-03 2.610e-03 
*LOADS
*RC U519:A 3.847e-05
*END

*R_NET data_out_last 1.735e-02
*DRIVER data_out_last_reg_reg:Q
*CELL fds2eqd1_hd
*C2_R1_C1 8.675e-03 9.100e-03 8.675e-03 
*LOADS
*RC U224:A 1.579e-04
*RC data_out_last 1.579e-04
*END

*R_NET scl_i 4.680e-03
*DRIVER scl_i
*CELL NULL
*C2_R1_C1 2.340e-03 7.370e-03 2.340e-03 
*LOADS
*RC scl_i_reg_reg:D 3.449e-05
*END

*R_NET scl_o 2.940e-02
*DRIVER scl_o_reg_reg:Q
*CELL fds2eqd1_hd
*C2_R1_C1 1.470e-02 1.094e-02 1.470e-02 
*LOADS
*RC U629:A 3.216e-04
*RC U846:A 3.216e-04
*RC U101:B 3.216e-04
*RC scl_o 3.216e-04
*END

*R_NET sda_i 4.680e-03
*DRIVER sda_i
*CELL NULL
*C2_R1_C1 2.340e-03 7.370e-03 2.340e-03 
*LOADS
*RC sda_i_reg_reg:D 3.449e-05
*END

*R_NET sda_o 2.459e-02
*DRIVER sda_o_reg_reg:Q
*CELL fd1eqd1_hd
*C2_R1_C1 1.230e-02 9.460e-03 1.230e-02 
*LOADS
*RC U81:B 2.326e-04
*RC U834:A 2.326e-04
*RC sda_o 2.326e-04
*END

*R_NET sda_t 1.853e-02
*DRIVER U834:Y
*CELL ivd1_hd
*C2_R1_C1 9.265e-03 9.100e-03 9.265e-03 
*LOADS
*RC U84:C 1.686e-04
*RC sda_t 1.686e-04
*END

*R_NET busy 1.350e-02
*DRIVER busy_reg_reg:Q
*CELL fd3qd1_hd
*C2_R1_C1 6.750e-03 7.370e-03 6.750e-03 
*LOADS
*RC busy 9.950e-05
*END

*R_NET bus_control 1.863e-02
*DRIVER bus_control_reg_reg:Q
*CELL fd1eqd1_hd
*C2_R1_C1 9.315e-03 9.100e-03 9.315e-03 
*LOADS
*RC U79:B 1.695e-04
*RC bus_control 1.695e-04
*END

*R_NET bus_active 3.030e-02
*DRIVER bus_active_reg_reg:Q
*CELL fds2eqd1_hd
*C2_R1_C1 1.515e-02 1.094e-02 1.515e-02 
*LOADS
*RC U203:A 3.315e-04
*RC U263:A 3.315e-04
*RC U275:C 3.315e-04
*RC bus_active 3.315e-04
*END

*R_NET missed_ack 1.350e-02
*DRIVER missed_ack_reg_reg:Q
*CELL fd3d1_hd
*C2_R1_C1 6.750e-03 7.370e-03 6.750e-03 
*LOADS
*RC missed_ack 9.950e-05
*END

*R_NET scl_i_reg 1.436e-02
*DRIVER scl_i_reg_reg:Q
*CELL fd1qd1_hd
*C2_R1_C1 7.180e-03 9.460e-03 7.180e-03 
*LOADS
*RC U536:A 1.358e-04
*RC U622:B 1.358e-04
*RC U624:B 1.358e-04
*END

*R_NET sda_i_reg 1.946e-02
*DRIVER sda_i_reg_reg:Q
*CELL fd1qd1_hd
*C2_R1_C1 9.730e-03 1.094e-02 9.730e-03 
*LOADS
*RC U623:A 2.129e-04
*RC U626:A 2.129e-04
*RC phy_rx_data_reg_reg:D 2.129e-04
*RC last_sda_i_reg_reg:D 2.129e-04
*END

*R_NET last_sda_i_reg 4.740e-03
*DRIVER last_sda_i_reg_reg:Q
*CELL fd3d1_hd
*C2_R1_C1 2.370e-03 7.370e-03 2.370e-03 
*LOADS
*RC U625:B 3.493e-05
*END

*R_NET sda_posedge 4.590e-03
*DRIVER U623:Y
*CELL ad2d1_hd
*C2_R1_C1 2.295e-03 7.370e-03 2.295e-03 
*LOADS
*RC U622:A 3.383e-05
*END

*R_NET sda_negedge 4.590e-03
*DRIVER U625:Y
*CELL ad2d1_hd
*C2_R1_C1 2.295e-03 7.370e-03 2.295e-03 
*LOADS
*RC U624:A 3.383e-05
*END

*R_NET start_bit 8.960e-03
*DRIVER U624:Y
*CELL ad2d1_hd
*C2_R1_C1 4.480e-03 9.100e-03 4.480e-03 
*LOADS
*RC U621:B 8.154e-05
*RC bus_active_reg_reg:D 8.154e-05
*END

*R_NET stop_bit 4.980e-03
*DRIVER U622:Y
*CELL ad2d1_hd
*C2_R1_C1 2.490e-03 7.370e-03 2.490e-03 
*LOADS
*RC U621:A 3.670e-05
*END

*R_NET addr_reg\[6\] 1.491e-02
*DRIVER addr_reg_reg_6_:Q
*CELL fds2eqd1_hd
*C2_R1_C1 7.455e-03 9.460e-03 7.455e-03 
*LOADS
*RC U356:A 1.410e-04
*RC U445:B 1.410e-04
*RC U291:A 1.410e-04
*END

*R_NET addr_reg\[4\] 1.491e-02
*DRIVER addr_reg_reg_4_:Q
*CELL fds2eqd1_hd
*C2_R1_C1 7.455e-03 9.460e-03 7.455e-03 
*LOADS
*RC U357:A 1.410e-04
*RC U382:B 1.410e-04
*RC U293:A 1.410e-04
*END

*R_NET addr_reg\[3\] 1.491e-02
*DRIVER addr_reg_reg_3_:Q
*CELL fds2eqd1_hd
*C2_R1_C1 7.455e-03 9.460e-03 7.455e-03 
*LOADS
*RC U375:A 1.410e-04
*RC U381:B 1.410e-04
*RC U294:A 1.410e-04
*END

*R_NET addr_reg\[1\] 1.563e-02
*DRIVER addr_reg_reg_1_:Q
*CELL fds2eqd1_hd
*C2_R1_C1 7.815e-03 9.460e-03 7.815e-03 
*LOADS
*RC U376:A 1.479e-04
*RC U90:B 1.479e-04
*RC U296:A 1.479e-04
*END

*R_NET data_reg\[7\] 1.016e-02
*DRIVER data_reg_reg_7_:Q
*CELL fds2eqd1_hd
*C2_R1_C1 5.080e-03 9.100e-03 5.080e-03 
*LOADS
*RC U444:B 9.246e-05
*RC U232:A 9.246e-05
*END

*R_NET data_reg\[6\] 1.433e-02
*DRIVER data_reg_reg_6_:Q
*CELL fds2eqd1_hd
*C2_R1_C1 7.165e-03 9.460e-03 7.165e-03 
*LOADS
*RC U595:A 1.356e-04
*RC U93:B 1.356e-04
*RC U235:A 1.356e-04
*END

*R_NET data_reg\[5\] 2.252e-02
*DRIVER data_reg_reg_5_:Q
*CELL fds2eqd1_hd
*C2_R1_C1 1.126e-02 1.094e-02 1.126e-02 
*LOADS
*RC U594:A 2.464e-04
*RC U94:B 2.464e-04
*RC U234:A 2.464e-04
*RC U237:A 2.464e-04
*END

*R_NET data_reg\[4\] 1.551e-02
*DRIVER data_reg_reg_4_:Q
*CELL fds2eqd1_hd
*C2_R1_C1 7.755e-03 9.460e-03 7.755e-03 
*LOADS
*RC U593:A 1.467e-04
*RC U94:D 1.467e-04
*RC U240:A 1.467e-04
*END

*R_NET data_reg\[3\] 2.146e-02
*DRIVER data_reg_reg_3_:Q
*CELL fds2eqd1_hd
*C2_R1_C1 1.073e-02 1.094e-02 1.073e-02 
*LOADS
*RC U592:A 2.348e-04
*RC U96:D 2.348e-04
*RC U239:A 2.348e-04
*RC U242:A 2.348e-04
*END

*R_NET data_reg\[2\] 1.434e-02
*DRIVER data_reg_reg_2_:Q
*CELL fds2eqd1_hd
*C2_R1_C1 7.170e-03 9.460e-03 7.170e-03 
*LOADS
*RC U591:A 1.357e-04
*RC U96:B 1.357e-04
*RC U245:A 1.357e-04
*END

*R_NET data_reg\[1\] 2.155e-02
*DRIVER data_reg_reg_1_:Q
*CELL fds2eqd1_hd
*C2_R1_C1 1.077e-02 1.094e-02 1.077e-02 
*LOADS
*RC U590:A 2.358e-04
*RC U96:H 2.358e-04
*RC U244:A 2.358e-04
*RC U247:A 2.358e-04
*END

*R_NET data_reg\[0\] 1.425e-02
*DRIVER data_reg_reg_0_:Q
*CELL fds2eqd1_hd
*C2_R1_C1 7.125e-03 9.460e-03 7.125e-03 
*LOADS
*RC U589:A 1.348e-04
*RC U96:F 1.348e-04
*RC U251:A 1.348e-04
*END

*R_NET last_reg 1.001e-02
*DRIVER last_reg_reg:Q
*CELL fds2eqd1_hd
*C2_R1_C1 5.005e-03 9.100e-03 5.005e-03 
*LOADS
*RC U531:A 9.109e-05
*RC U230:C 9.109e-05
*END

*R_NET mode_read_reg 2.227e-02
*DRIVER mode_read_reg_reg:Q
*CELL fds2eqd1_hd
*C2_R1_C1 1.113e-02 1.094e-02 1.113e-02 
*LOADS
*RC U600:A 2.436e-04
*RC U88:A 2.436e-04
*RC U259:B 2.436e-04
*RC U282:A 2.436e-04
*END

*R_NET mode_write_multiple_reg 8.540e-03
*DRIVER mode_write_multiple_reg_reg:Q
*CELL fds2eqd1_hd
*C2_R1_C1 4.270e-03 9.100e-03 4.270e-03 
*LOADS
*RC U530:A 7.771e-05
*RC U605:A 7.771e-05
*END

*R_NET mode_stop_reg 2.541e-02
*DRIVER mode_stop_reg_reg:Q
*CELL fds2eqd1_hd
*C2_R1_C1 1.271e-02 1.549e-02 1.271e-02 
*LOADS
*RC U385:A 3.936e-04
*RC U486:B 3.936e-04
*RC U601:A 3.936e-04
*RC U837:A 3.936e-04
*RC U191:B 3.936e-04
*END

*R_NET bit_count_reg_0_ 5.601e-02
*DRIVER bit_count_reg_reg_0_:Q
*CELL fds2eqd1_hd
*C2_R1_C1 2.801e-02 2.163e-02 2.801e-02 
*LOADS
*RC U359:A 1.212e-03
*RC U360:A 1.212e-03
*RC U377:A 1.212e-03
*RC U683:A 1.212e-03
*RC U681:A 1.212e-03
*RC U679:A 1.212e-03
*RC U678:A 1.212e-03
*RC U677:A 1.212e-03
*RC gt_x_187_U16:B 1.212e-03
*RC U821:A 1.212e-03
*RC U268:A 1.212e-03
*RC U268:D 1.212e-03
*END

*R_NET state_reg\[2\] 5.428e-02
*DRIVER state_reg_reg_2_:Q
*CELL fds2eqd1_hd
*C2_R1_C1 2.714e-02 2.139e-02 2.714e-02 
*LOADS
*RC U695:A 1.161e-03
*RC U694:B 1.161e-03
*RC U693:B 1.161e-03
*RC U692:B 1.161e-03
*RC U691:B 1.161e-03
*RC U690:B 1.161e-03
*RC U689:B 1.161e-03
*RC U688:B 1.161e-03
*RC U687:A 1.161e-03
*RC U686:A 1.161e-03
*RC U685:A 1.161e-03
*END

*R_NET state_reg\[1\] 4.279e-02
*DRIVER state_reg_reg_1_:Q
*CELL fds2eqd1_hd
*C2_R1_C1 2.139e-02 2.066e-02 2.139e-02 
*LOADS
*RC U323:A 8.840e-04
*RC U440:A 8.840e-04
*RC U511:A 8.840e-04
*RC U526:A 8.840e-04
*RC U532:A 8.840e-04
*RC U534:A 8.840e-04
*RC U673:A 8.840e-04
*RC U672:A 8.840e-04
*END

*R_NET state_reg\[0\] 4.492e-02
*DRIVER state_reg_reg_0_:Q
*CELL fds2eqd1_hd
*C2_R1_C1 2.246e-02 2.066e-02 2.246e-02 
*LOADS
*RC U330:A 9.280e-04
*RC U675:B 9.280e-04
*RC U674:B 9.280e-04
*RC U673:B 9.280e-04
*RC U672:B 9.280e-04
*RC U671:B 9.280e-04
*RC U835:A 9.280e-04
*RC U838:A 9.280e-04
*END

*R_NET phy_state_reg\[2\] 6.073e-02
*DRIVER phy_state_reg_reg_2_:Q
*CELL fds2eqd1_hd
*C2_R1_C1 3.036e-02 2.188e-02 3.036e-02 
*LOADS
*RC U450:A 1.329e-03
*RC U708:A 1.329e-03
*RC U707:A 1.329e-03
*RC U706:B 1.329e-03
*RC U705:B 1.329e-03
*RC U704:B 1.329e-03
*RC U703:B 1.329e-03
*RC U702:B 1.329e-03
*RC U701:B 1.329e-03
*RC U700:B 1.329e-03
*RC U699:B 1.329e-03
*RC U698:A 1.329e-03
*RC U697:A 1.329e-03
*END

*R_NET phy_state_reg\[1\] 5.911e-02
*DRIVER phy_state_reg_reg_1_:Q
*CELL fds2eqd1_hd
*C2_R1_C1 2.955e-02 2.188e-02 2.955e-02 
*LOADS
*RC U451:A 1.293e-03
*RC U670:A 1.293e-03
*RC U669:A 1.293e-03
*RC U668:A 1.293e-03
*RC U667:A 1.293e-03
*RC U666:A 1.293e-03
*RC U665:A 1.293e-03
*RC U664:A 1.293e-03
*RC U663:A 1.293e-03
*RC U662:A 1.293e-03
*RC U661:A 1.293e-03
*RC U660:A 1.293e-03
*RC U659:A 1.293e-03
*END

*R_NET phy_state_reg\[0\] 5.458e-02
*DRIVER phy_state_reg_reg_0_:Q
*CELL fds2eqd1_hd
*C2_R1_C1 2.729e-02 2.139e-02 2.729e-02 
*LOADS
*RC U653:A 1.168e-03
*RC U652:A 1.168e-03
*RC U651:B 1.168e-03
*RC U650:B 1.168e-03
*RC U649:B 1.168e-03
*RC U648:B 1.168e-03
*RC U668:B 1.168e-03
*RC U664:B 1.168e-03
*RC U663:B 1.168e-03
*RC U661:B 1.168e-03
*RC U836:A 1.168e-03
*END

*R_NET N121 2.548e-02
*DRIVER U843:Y
*CELL xo2d1_hd
*C2_R1_C1 1.274e-02 1.549e-02 1.274e-02 
*LOADS
*RC U322:A 3.947e-04
*RC U325:B 3.947e-04
*RC U529:A 3.947e-04
*RC U841:B 3.947e-04
*RC U844:A 3.947e-04
*END

*R_NET N122 4.672e-02
*DRIVER U785:Y
*CELL ad2d1_hd
*C2_R1_C1 2.336e-02 2.066e-02 2.336e-02 
*LOADS
*RC U325:A 9.652e-04
*RC U436:A 9.652e-04
*RC U527:B 9.652e-04
*RC U72:B 9.652e-04
*RC U201:A 9.652e-04
*RC U209:A 9.652e-04
*RC U210:B 9.652e-04
*RC U307:B 9.652e-04
*END

*R_NET N123 2.091e-02
*DRIVER U845:Y
*CELL ad2d1_hd
*C2_R1_C1 1.045e-02 1.094e-02 1.045e-02 
*LOADS
*RC U322:B 2.288e-04
*RC U513:A 2.288e-04
*RC U841:A 2.288e-04
*RC U209:B 2.288e-04
*END

*R_NET N124 2.086e-02
*DRIVER U772:Y
*CELL ad2d1_hd
*C2_R1_C1 1.043e-02 1.094e-02 1.043e-02 
*LOADS
*RC U428:A 2.282e-04
*RC U527:A 2.282e-04
*RC U72:C 2.282e-04
*RC U209:C 2.282e-04
*END

*R_NET phy_rx_data_reg 1.486e-02
*DRIVER phy_rx_data_reg_reg:Q
*CELL fds2eqd1_hd
*C2_R1_C1 7.430e-03 9.460e-03 7.430e-03 
*LOADS
*RC U588:B 1.406e-04
*RC U77:A 1.406e-04
*RC U250:B 1.406e-04
*END

*R_NET phy_start_bit 3.017e-02
*DRIVER U180:Y
*CELL nr2d1_hd
*C2_R1_C1 1.508e-02 1.674e-02 1.508e-02 
*LOADS
*RC U443:A 5.050e-04
*RC U448:B 5.050e-04
*RC U566:B 5.050e-04
*RC U568:A 5.050e-04
*RC U776:A 5.050e-04
*RC U793:A 5.050e-04
*END

*R_NET phy_stop_bit 8.790e-03
*DRIVER U73:Y
*CELL scg20d1_hd
*C2_R1_C1 4.395e-03 9.100e-03 4.395e-03 
*LOADS
*RC U331:A 7.999e-05
*RC U777:A 7.999e-05
*END

*R_NET phy_write_bit 1.445e-02
*DRIVER U70:Y
*CELL ao21d1_hd
*C2_R1_C1 7.225e-03 9.460e-03 7.225e-03 
*LOADS
*RC U335:A 1.367e-04
*RC U387:A 1.367e-04
*RC U448:A 1.367e-04
*END

*R_NET phy_read_bit 1.445e-02
*DRIVER U75:Y
*CELL ao21d1_hd
*C2_R1_C1 7.225e-03 9.460e-03 7.225e-03 
*LOADS
*RC U333:A 1.367e-04
*RC U334:A 1.367e-04
*RC U447:A 1.367e-04
*END

*R_NET N125 5.600e-03
*DRIVER U617:Y
*CELL ad2d1_hd
*C2_R1_C1 2.800e-03 7.370e-03 2.800e-03 
*LOADS
*RC U103:C 4.127e-05
*END

*R_NET N126 6.007e-02
*DRIVER U320:Y
*CELL ad2d1_hd
*C2_R1_C1 3.003e-02 2.163e-02 3.003e-02 
*LOADS
*RC U321:A 1.300e-03
*RC U361:A 1.300e-03
*RC U390:A 1.300e-03
*RC U392:A 1.300e-03
*RC U395:A 1.300e-03
*RC U408:A 1.300e-03
*RC U606:A 1.300e-03
*RC U615:A 1.300e-03
*RC U180:B 1.300e-03
*RC U75:C 1.300e-03
*RC U73:C 1.300e-03
*RC U70:C 1.300e-03
*END

*R_NET N131 2.398e-02
*DRIVER U647:Y
*CELL ivd1_hd
*C2_R1_C1 1.199e-02 1.549e-02 1.199e-02 
*LOADS
*RC U326:A 3.715e-04
*RC U694:A 3.715e-04
*RC U691:A 3.715e-04
*RC U689:A 3.715e-04
*RC U688:A 3.715e-04
*END

*R_NET N132 2.497e-02
*DRIVER U695:Y
*CELL ivd1_hd
*C2_R1_C1 1.248e-02 1.549e-02 1.248e-02 
*LOADS
*RC U326:B 3.868e-04
*RC U646:B 3.868e-04
*RC U645:B 3.868e-04
*RC U644:B 3.868e-04
*RC U643:B 3.868e-04
*END

*R_NET N133 4.590e-03
*DRIVER U326:Y
*CELL ad2d1_hd
*C2_R1_C1 2.295e-03 7.370e-03 2.295e-03 
*LOADS
*RC U791:A 3.383e-05
*END

*R_NET N134 4.740e-03
*DRIVER U327:Y
*CELL ad2d1_hd
*C2_R1_C1 2.370e-03 7.370e-03 2.370e-03 
*LOADS
*RC U791:B 3.493e-05
*END

*R_NET N135 4.750e-02
*DRIVER U791:Y
*CELL ad2d1_hd
*C2_R1_C1 2.375e-02 2.090e-02 2.375e-02 
*LOADS
*RC U351:B 9.930e-04
*RC U362:A 9.930e-04
*RC U391:A 9.930e-04
*RC U393:A 9.930e-04
*RC U522:A 9.930e-04
*RC U6:B 9.930e-04
*RC U275:B 9.930e-04
*RC U299:AN 9.930e-04
*RC U300:A 9.930e-04
*END

*R_NET N136 4.980e-03
*DRIVER U690:Y
*CELL or2d1_hd
*C2_R1_C1 2.490e-03 7.370e-03 2.490e-03 
*LOADS
*RC U525:A 3.670e-05
*END

*R_NET N137 5.190e-03
*DRIVER U526:Y
*CELL or2d1_hd
*C2_R1_C1 2.595e-03 7.370e-03 2.595e-03 
*LOADS
*RC U525:B 3.825e-05
*END

*R_NET N138 2.290e-02
*DRIVER U525:Y
*CELL or2d1_hd
*C2_R1_C1 1.145e-02 1.094e-02 1.145e-02 
*LOADS
*RC U5:B 2.505e-04
*RC U285:B 2.505e-04
*RC U213:B 2.505e-04
*RC U790:A 2.505e-04
*END

*R_NET N139 4.324e-02
*DRIVER U790:Y
*CELL ivd1_hd
*C2_R1_C1 2.162e-02 2.066e-02 2.162e-02 
*LOADS
*RC U351:A 8.933e-04
*RC U384:C 8.933e-04
*RC U389:A 8.933e-04
*RC U401:A 8.933e-04
*RC U468:A 8.933e-04
*RC U109:A 8.933e-04
*RC U210:A 8.933e-04
*RC U306:B 8.933e-04
*END

*R_NET N140 5.520e-03
*DRIVER U692:Y
*CELL or2d1_hd
*C2_R1_C1 2.760e-03 7.370e-03 2.760e-03 
*LOADS
*RC U789:A 4.068e-05
*END

*R_NET N141 5.640e-03
*DRIVER U674:Y
*CELL or2d1_hd
*C2_R1_C1 2.820e-03 7.370e-03 2.820e-03 
*LOADS
*RC U789:B 4.157e-05
*END

*R_NET N144 5.520e-03
*DRIVER U693:Y
*CELL or2d1_hd
*C2_R1_C1 2.760e-03 7.370e-03 2.760e-03 
*LOADS
*RC U328:A 4.068e-05
*END

*R_NET N145 5.640e-03
*DRIVER U329:Y
*CELL or2d1_hd
*C2_R1_C1 2.820e-03 7.370e-03 2.820e-03 
*LOADS
*RC U328:B 4.157e-05
*END

*R_NET N148 5.520e-03
*DRIVER U645:Y
*CELL or2d1_hd
*C2_R1_C1 2.760e-03 7.370e-03 2.760e-03 
*LOADS
*RC U317:A 4.068e-05
*END

*R_NET N149 5.640e-03
*DRIVER U673:Y
*CELL or2d1_hd
*C2_R1_C1 2.820e-03 7.370e-03 2.820e-03 
*LOADS
*RC U317:B 4.157e-05
*END

*R_NET N152 5.520e-03
*DRIVER U646:Y
*CELL or2d1_hd
*C2_R1_C1 2.760e-03 7.370e-03 2.760e-03 
*LOADS
*RC U314:A 4.068e-05
*END

*R_NET N153 5.640e-03
*DRIVER U511:Y
*CELL or2d1_hd
*C2_R1_C1 2.820e-03 7.370e-03 2.820e-03 
*LOADS
*RC U314:B 4.157e-05
*END

*R_NET N156 5.520e-03
*DRIVER U643:Y
*CELL or2d1_hd
*C2_R1_C1 2.760e-03 7.370e-03 2.760e-03 
*LOADS
*RC U319:A 4.068e-05
*END

*R_NET N157 5.640e-03
*DRIVER U671:Y
*CELL or2d1_hd
*C2_R1_C1 2.820e-03 7.370e-03 2.820e-03 
*LOADS
*RC U319:B 4.157e-05
*END

*R_NET N160 5.520e-03
*DRIVER U644:Y
*CELL or2d1_hd
*C2_R1_C1 2.760e-03 7.370e-03 2.760e-03 
*LOADS
*RC U804:A 4.068e-05
*END

*R_NET N161 5.640e-03
*DRIVER U409:Y
*CELL or2d1_hd
*C2_R1_C1 2.820e-03 7.370e-03 2.820e-03 
*LOADS
*RC U804:B 4.157e-05
*END

*R_NET N164 4.980e-03
*DRIVER U691:Y
*CELL or2d1_hd
*C2_R1_C1 2.490e-03 7.370e-03 2.490e-03 
*LOADS
*RC U508:A 3.670e-05
*END

*R_NET N165 5.190e-03
*DRIVER U672:Y
*CELL or2d1_hd
*C2_R1_C1 2.595e-03 7.370e-03 2.595e-03 
*LOADS
*RC U508:B 3.825e-05
*END

*R_NET N166 2.732e-02
*DRIVER U508:Y
*CELL or2d1_hd
*C2_R1_C1 1.366e-02 1.549e-02 1.366e-02 
*LOADS
*RC U3:B 4.232e-04
*RC U269:A 4.232e-04
*RC U212:B 4.232e-04
*RC U192:B 4.232e-04
*RC U795:A 4.232e-04
*END

*R_NET N167 2.296e-02
*DRIVER U795:Y
*CELL ivd1_hd
*C2_R1_C1 1.148e-02 1.549e-02 1.148e-02 
*LOADS
*RC U417:A 3.557e-04
*RC U479:A 3.557e-04
*RC U499:A 3.557e-04
*RC U599:A 3.557e-04
*RC U97:B 3.557e-04
*END

*R_NET N168 5.520e-03
*DRIVER U689:Y
*CELL or2d1_hd
*C2_R1_C1 2.760e-03 7.370e-03 2.760e-03 
*LOADS
*RC U313:A 4.068e-05
*END

*R_NET N169 5.640e-03
*DRIVER U532:Y
*CELL or2d1_hd
*C2_R1_C1 2.820e-03 7.370e-03 2.820e-03 
*LOADS
*RC U313:B 4.157e-05
*END

*R_NET N172 7.060e-03
*DRIVER U694:Y
*CELL or2d1_hd
*C2_R1_C1 3.530e-03 7.370e-03 3.530e-03 
*LOADS
*RC U336:A 5.203e-05
*END

*R_NET N173 8.070e-03
*DRIVER U675:Y
*CELL or2d1_hd
*C2_R1_C1 4.035e-03 7.370e-03 4.035e-03 
*LOADS
*RC U336:B 5.948e-05
*END

*R_NET N176 5.520e-03
*DRIVER U688:Y
*CELL or2d1_hd
*C2_R1_C1 2.760e-03 7.370e-03 2.760e-03 
*LOADS
*RC U778:A 4.068e-05
*END

*R_NET N177 5.640e-03
*DRIVER U432:Y
*CELL or2d1_hd
*C2_R1_C1 2.820e-03 7.370e-03 2.820e-03 
*LOADS
*RC U778:B 4.157e-05
*END

*R_NET N223 5.190e-03
*DRIVER U429:Y
*CELL ivd1_hd
*C2_R1_C1 2.595e-03 7.370e-03 2.595e-03 
*LOADS
*RC U428:B 3.825e-05
*END

*R_NET N226 1.095e-02
*DRIVER U792:Y
*CELL or2d1_hd
*C2_R1_C1 5.475e-03 9.100e-03 5.475e-03 
*LOADS
*RC U262:B 9.965e-05
*RC U283:A 9.965e-05
*END

*R_NET N243 5.830e-03
*DRIVER U844:Y
*CELL ivd1_hd
*C2_R1_C1 2.915e-03 7.370e-03 2.915e-03 
*LOADS
*RC U307:A 4.297e-05
*END

*R_NET N249 5.600e-03
*DRIVER U529:Y
*CELL or2d1_hd
*C2_R1_C1 2.800e-03 7.370e-03 2.800e-03 
*LOADS
*RC U210:C 4.127e-05
*END

*R_NET N272 1.614e-02
*DRIVER U810:Y
*CELL or2d1_hd
*C2_R1_C1 8.070e-03 9.460e-03 8.070e-03 
*LOADS
*RC U426:A 1.527e-04
*RC U202:A 1.527e-04
*RC U261:B 1.527e-04
*END

*R_NET N306 5.830e-03
*DRIVER U322:Y
*CELL or2d1_hd
*C2_R1_C1 2.915e-03 7.370e-03 2.915e-03 
*LOADS
*RC U72:A 4.297e-05
*END

*R_NET N348 4.730e-03
*DRIVER U677:Y
*CELL xn2d1_hd
*C2_R1_C1 2.365e-03 7.370e-03 2.365e-03 
*LOADS
*RC U676:A 3.486e-05
*END

*R_NET N349 4.730e-03
*DRIVER U572:Y
*CELL xn2d1_hd
*C2_R1_C1 2.365e-03 7.370e-03 2.365e-03 
*LOADS
*RC U571:A 3.486e-05
*END

*R_NET N350 5.830e-03
*DRIVER U569:Y
*CELL xn2d1_hd
*C2_R1_C1 2.915e-03 7.370e-03 2.915e-03 
*LOADS
*RC U256:C 4.297e-05
*END

*R_NET N351 1.505e-02
*DRIVER gt_x_2_U4:Y
*CELL oa21d1_hd
*C2_R1_C1 7.525e-03 9.460e-03 7.525e-03 
*LOADS
*RC U324:A 1.424e-04
*RC U337:A 1.424e-04
*RC U514:B 1.424e-04
*END

*R_NET N352 3.013e-02
*DRIVER gt_x_187_U4:Y
*CELL oa21d1_hd
*C2_R1_C1 1.506e-02 1.674e-02 1.506e-02 
*LOADS
*RC U510:A 5.044e-04
*RC U97:A 5.044e-04
*RC U212:A 5.044e-04
*RC U226:A 5.044e-04
*RC U437:A 5.044e-04
*RC U514:A 5.044e-04
*END

*R_NET N355 5.910e-03
*DRIVER U337:Y
*CELL or2d1_hd
*C2_R1_C1 2.955e-03 7.370e-03 2.955e-03 
*LOADS
*RC U214:B 4.356e-05
*END

*R_NET N371 9.570e-03
*DRIVER U824:Y
*CELL ad2d1_hd
*C2_R1_C1 4.785e-03 9.100e-03 4.785e-03 
*LOADS
*RC U260:A 8.709e-05
*RC U281:B 8.709e-05
*END

*R_NET N396 1.550e-02
*DRIVER U530:Y
*CELL ad2d1_hd
*C2_R1_C1 7.750e-03 9.460e-03 7.750e-03 
*LOADS
*RC U430:A 1.466e-04
*RC U620:A 1.466e-04
*RC U837:B 1.466e-04
*END

*R_NET N399 5.020e-03
*DRIVER U620:Y
*CELL or2d1_hd
*C2_R1_C1 2.510e-03 7.370e-03 2.510e-03 
*LOADS
*RC U803:B 3.700e-05
*END

*R_NET N401 4.730e-03
*DRIVER U385:Y
*CELL ad2d1_hd
*C2_R1_C1 2.365e-03 7.370e-03 2.365e-03 
*LOADS
*RC U384:A 3.486e-05
*END

*R_NET N439 4.550e-03
*DRIVER U296:Y
*CELL scg16d1_hd
*C2_R1_C1 2.275e-03 7.370e-03 2.275e-03 
*LOADS
*RC addr_reg_reg_1_:D 3.353e-05
*END

*R_NET N441 4.550e-03
*DRIVER U294:Y
*CELL scg16d1_hd
*C2_R1_C1 2.275e-03 7.370e-03 2.275e-03 
*LOADS
*RC addr_reg_reg_3_:D 3.353e-05
*END

*R_NET N442 4.550e-03
*DRIVER U293:Y
*CELL scg16d1_hd
*C2_R1_C1 2.275e-03 7.370e-03 2.275e-03 
*LOADS
*RC addr_reg_reg_4_:D 3.353e-05
*END

*R_NET N444 4.550e-03
*DRIVER U291:Y
*CELL scg16d1_hd
*C2_R1_C1 2.275e-03 7.370e-03 2.275e-03 
*LOADS
*RC addr_reg_reg_6_:D 3.353e-05
*END

*R_NET N445 4.550e-03
*DRIVER U600:Y
*CELL scg2d1_hd
*C2_R1_C1 2.275e-03 7.370e-03 2.275e-03 
*LOADS
*RC mode_read_reg_reg:D 3.353e-05
*END

*R_NET N446 4.550e-03
*DRIVER U605:Y
*CELL scg2d1_hd
*C2_R1_C1 2.275e-03 7.370e-03 2.275e-03 
*LOADS
*RC mode_write_multiple_reg_reg:D 3.353e-05
*END

*R_NET N447 4.550e-03
*DRIVER U601:Y
*CELL scg2d1_hd
*C2_R1_C1 2.275e-03 7.370e-03 2.275e-03 
*LOADS
*RC mode_stop_reg_reg:D 3.353e-05
*END

*R_NET N448 4.550e-03
*DRIVER U268:Y
*CELL ao22ad1_hd
*C2_R1_C1 2.275e-03 7.370e-03 2.275e-03 
*LOADS
*RC bit_count_reg_reg_0_:D 3.353e-05
*END

*R_NET N449 4.550e-03
*DRIVER U676:Y
*CELL scg2d1_hd
*C2_R1_C1 2.275e-03 7.370e-03 2.275e-03 
*LOADS
*RC bit_count_reg_reg_1_:D 3.353e-05
*END

*R_NET N450 4.550e-03
*DRIVER U571:Y
*CELL scg2d1_hd
*C2_R1_C1 2.275e-03 7.370e-03 2.275e-03 
*LOADS
*RC bit_count_reg_reg_2_:D 3.353e-05
*END

*R_NET N451 4.550e-03
*DRIVER U255:Y
*CELL nd3d1_hd
*C2_R1_C1 2.275e-03 7.370e-03 2.275e-03 
*LOADS
*RC bit_count_reg_reg_3_:D 3.353e-05
*END

*R_NET N454 4.550e-03
*DRIVER U249:Y
*CELL oa21d1_hd
*C2_R1_C1 2.275e-03 7.370e-03 2.275e-03 
*LOADS
*RC data_reg_reg_0_:D 3.353e-05
*END

*R_NET N455 4.550e-03
*DRIVER U246:Y
*CELL oa21d1_hd
*C2_R1_C1 2.275e-03 7.370e-03 2.275e-03 
*LOADS
*RC data_reg_reg_1_:D 3.353e-05
*END

*R_NET N456 4.550e-03
*DRIVER U243:Y
*CELL oa21d1_hd
*C2_R1_C1 2.275e-03 7.370e-03 2.275e-03 
*LOADS
*RC data_reg_reg_2_:D 3.353e-05
*END

*R_NET N457 4.550e-03
*DRIVER U241:Y
*CELL oa21d1_hd
*C2_R1_C1 2.275e-03 7.370e-03 2.275e-03 
*LOADS
*RC data_reg_reg_3_:D 3.353e-05
*END

*R_NET N458 4.550e-03
*DRIVER U238:Y
*CELL oa21d1_hd
*C2_R1_C1 2.275e-03 7.370e-03 2.275e-03 
*LOADS
*RC data_reg_reg_4_:D 3.353e-05
*END

*R_NET N459 4.550e-03
*DRIVER U236:Y
*CELL oa21d1_hd
*C2_R1_C1 2.275e-03 7.370e-03 2.275e-03 
*LOADS
*RC data_reg_reg_5_:D 3.353e-05
*END

*R_NET N460 4.550e-03
*DRIVER U233:Y
*CELL oa21d1_hd
*C2_R1_C1 2.275e-03 7.370e-03 2.275e-03 
*LOADS
*RC data_reg_reg_6_:D 3.353e-05
*END
