*SPEF "IEEE 1481-1999"
*DESIGN "i2c_master"
*DATE "Wed Jun 17 12:47:37 2020"
*VENDOR "SYNOPSYS INC"
*PROGRAM "Synopsys Design Compiler cmos"
*VERSION "F-2011.09-SP5-3"
*DESIGN_FLOW "SYNTHESIS"
*DIVIDER /
*DELIMITER :
*BUS_DELIMITER []
*T_UNIT 1.0 NS
*C_UNIT 1.0 PF
*R_UNIT 1.0 KOHM
*L_UNIT 1.0 HENRY

*PORTS

i_CLK I *L 0.000e+00 *S 0.000e+00 0.000e+00 
i_RSTN I *L 0.000e+00 *S 0.000e+00 0.000e+00 
cmd_start I *L 0.000e+00 *S 0.000e+00 0.000e+00 
cmd_read I *L 0.000e+00 *S 0.000e+00 0.000e+00 
cmd_write I *L 0.000e+00 *S 0.000e+00 0.000e+00 
cmd_write_multiple I *L 0.000e+00 *S 0.000e+00 0.000e+00 
cmd_stop I *L 0.000e+00 *S 0.000e+00 0.000e+00 
cmd_valid I *L 0.000e+00 *S 0.000e+00 0.000e+00 
cmd_ready O *L 1.035e-02 *S 2.079e-01 1.508e-01 
data_in\[7\] I *L 0.000e+00 *S 0.000e+00 0.000e+00 
data_in\[6\] I *L 0.000e+00 *S 0.000e+00 0.000e+00 
data_in\[5\] I *L 0.000e+00 *S 0.000e+00 0.000e+00 
data_in\[4\] I *L 0.000e+00 *S 0.000e+00 0.000e+00 
data_in\[3\] I *L 0.000e+00 *S 0.000e+00 0.000e+00 
data_in\[2\] I *L 0.000e+00 *S 0.000e+00 0.000e+00 
data_in\[1\] I *L 0.000e+00 *S 0.000e+00 0.000e+00 
data_in\[0\] I *L 0.000e+00 *S 0.000e+00 0.000e+00 
data_in_valid I *L 0.000e+00 *S 0.000e+00 0.000e+00 
data_in_ready O *L 1.035e-02 *S 1.666e-01 1.234e-01 
data_in_last I *L 0.000e+00 *S 0.000e+00 0.000e+00 
data_out\[7\] O *L 1.035e-02 *S 1.561e-01 1.293e-01 
data_out\[6\] O *L 1.035e-02 *S 1.561e-01 1.293e-01 
data_out\[5\] O *L 1.035e-02 *S 1.561e-01 1.293e-01 
data_out\[4\] O *L 1.035e-02 *S 1.561e-01 1.293e-01 
data_out\[3\] O *L 1.035e-02 *S 1.561e-01 1.293e-01 
data_out\[2\] O *L 1.035e-02 *S 1.561e-01 1.293e-01 
data_out\[1\] O *L 1.035e-02 *S 1.561e-01 1.293e-01 
data_out\[0\] O *L 1.035e-02 *S 1.561e-01 1.293e-01 
data_out_valid O *L 1.035e-02 *S 2.163e-01 1.562e-01 
data_out_ready I *L 0.000e+00 *S 0.000e+00 0.000e+00 
data_out_last O *L 1.035e-02 *S 1.569e-01 1.298e-01 
scl_i I *L 0.000e+00 *S 0.000e+00 0.000e+00 
scl_o O *L 1.035e-02 *S 2.561e-01 1.813e-01 
scl_t O *L 1.035e-02 *S 1.130e-01 7.848e-02 
sda_i I *L 0.000e+00 *S 0.000e+00 0.000e+00 
sda_o O *L 1.035e-02 *S 1.666e-01 1.234e-01 
sda_t O *L 1.035e-02 *S 2.105e-01 1.695e-01 
busy O *L 1.035e-02 *S 1.320e-01 1.022e-01 
bus_control O *L 1.035e-02 *S 1.674e-01 1.239e-01 
bus_active O *L 1.035e-02 *S 3.127e-01 2.200e-01 
missed_ack O *L 1.035e-02 *S 1.347e-01 1.012e-01 

*R_NET i_CLK 1.559e-01
*DRIVER i_CLK
*CELL NULL
*C2_R1_C1 7.797e-02 0.000e+00 7.797e-02 
*LOADS
*RC bit_count_reg_reg_2_:CK 0.000e+00
*RC bit_count_reg_reg_1_:CK 0.000e+00
*RC delay_reg_reg_0_:CK 0.000e+00
*RC delay_reg_reg_16_:CK 0.000e+00
*RC delay_reg_reg_8_:CK 0.000e+00
*RC delay_reg_reg_9_:CK 0.000e+00
*RC delay_reg_reg_10_:CK 0.000e+00
*RC delay_reg_reg_11_:CK 0.000e+00
*RC delay_reg_reg_12_:CK 0.000e+00
*RC delay_reg_reg_13_:CK 0.000e+00
*RC delay_reg_reg_14_:CK 0.000e+00
*RC delay_reg_reg_15_:CK 0.000e+00
*RC delay_reg_reg_2_:CK 0.000e+00
*RC delay_reg_reg_3_:CK 0.000e+00
*RC delay_reg_reg_4_:CK 0.000e+00
*RC delay_reg_reg_5_:CK 0.000e+00
*RC delay_reg_reg_6_:CK 0.000e+00
*RC delay_reg_reg_7_:CK 0.000e+00
*RC delay_reg_reg_1_:CK 0.000e+00
*RC phy_state_reg_reg_2_:CK 0.000e+00
*RC sda_o_reg_reg:CK 0.000e+00
*RC phy_state_reg_reg_0_:CK 0.000e+00
*RC phy_state_reg_reg_3_:CK 0.000e+00
*RC phy_state_reg_reg_1_:CK 0.000e+00
*RC state_reg_reg_2_:CK 0.000e+00
*RC state_reg_reg_1_:CK 0.000e+00
*RC state_reg_reg_3_:CK 0.000e+00
*RC data_in_ready_reg_reg:CK 0.000e+00
*RC state_reg_reg_0_:CK 0.000e+00
*RC cmd_ready_reg_reg:CK 0.000e+00
*RC data_out_valid_reg_reg:CK 0.000e+00
*RC scl_i_reg_reg:CK 0.000e+00
*RC sda_i_reg_reg:CK 0.000e+00
*RC delay_scl_reg_reg:CK 0.000e+00
*RC scl_o_reg_reg:CK 0.000e+00
*RC bus_control_reg_reg:CK 0.000e+00
*RC missed_ack_reg_reg:CK 0.000e+00
*RC last_sda_i_reg_reg:CK 0.000e+00
*RC data_reg_reg_1_:CK 0.000e+00
*RC data_reg_reg_3_:CK 0.000e+00
*RC data_reg_reg_5_:CK 0.000e+00
*RC data_reg_reg_7_:CK 0.000e+00
*RC data_reg_reg_0_:CK 0.000e+00
*RC data_reg_reg_2_:CK 0.000e+00
*RC data_reg_reg_4_:CK 0.000e+00
*RC data_reg_reg_6_:CK 0.000e+00
*RC mode_read_reg_reg:CK 0.000e+00
*RC mode_stop_reg_reg:CK 0.000e+00
*RC mode_write_multiple_reg_reg:CK 0.000e+00
*RC bit_count_reg_reg_3_:CK 0.000e+00
*RC bit_count_reg_reg_0_:CK 0.000e+00
*RC addr_reg_reg_1_:CK 0.000e+00
*RC addr_reg_reg_3_:CK 0.000e+00
*RC addr_reg_reg_4_:CK 0.000e+00
*RC addr_reg_reg_6_:CK 0.000e+00
*RC addr_reg_reg_0_:CK 0.000e+00
*RC addr_reg_reg_2_:CK 0.000e+00
*RC addr_reg_reg_5_:CK 0.000e+00
*RC last_reg_reg:CK 0.000e+00
*RC data_out_last_reg_reg:CK 0.000e+00
*RC data_out_reg_reg_1_:CK 0.000e+00
*RC data_out_reg_reg_2_:CK 0.000e+00
*RC data_out_reg_reg_3_:CK 0.000e+00
*RC data_out_reg_reg_4_:CK 0.000e+00
*RC data_out_reg_reg_5_:CK 0.000e+00
*RC data_out_reg_reg_6_:CK 0.000e+00
*RC data_out_reg_reg_7_:CK 0.000e+00
*RC phy_rx_data_reg_reg:CK 0.000e+00
*RC data_out_reg_reg_0_:CK 0.000e+00
*RC delay_sda_reg_reg:CK 0.000e+00
*RC busy_reg_reg:CK 0.000e+00
*RC phy_state_reg_reg_4_:CK 0.000e+00
*RC state_reg_reg_4_:CK 0.000e+00
*RC bus_active_reg_reg:CK 0.000e+00
*RC async_rstn_synchronizer/r_ff_reg:CK 0.000e+00
*RC async_rstn_synchronizer/o_RSTN_reg:CK 0.000e+00
*END

*R_NET cmd_start 9.180e-03
*DRIVER cmd_start
*CELL NULL
*C2_R1_C1 4.590e-03 9.100e-03 4.590e-03 
*LOADS
*RC U355:A 8.354e-05
*RC U468:A 8.354e-05
*END

*R_NET cmd_read 2.093e-02
*DRIVER cmd_read
*CELL NULL
*C2_R1_C1 1.046e-02 1.094e-02 1.046e-02 
*LOADS
*RC U344:A 2.290e-04
*RC U650:C 2.290e-04
*RC U851:B 2.290e-04
*RC U925:A 2.290e-04
*END

*R_NET cmd_write 1.502e-02
*DRIVER cmd_write
*CELL NULL
*C2_R1_C1 7.510e-03 9.460e-03 7.510e-03 
*LOADS
*RC U344:B 1.421e-04
*RC U345:A 1.421e-04
*RC U867:B 1.421e-04
*END

*R_NET cmd_write_multiple 1.517e-02
*DRIVER cmd_write_multiple
*CELL NULL
*C2_R1_C1 7.585e-03 9.460e-03 7.585e-03 
*LOADS
*RC U345:B 1.435e-04
*RC U655:C 1.435e-04
*RC U921:B 1.435e-04
*END

*R_NET cmd_stop 8.490e-03
*DRIVER cmd_stop
*CELL NULL
*C2_R1_C1 4.245e-03 9.100e-03 4.245e-03 
*LOADS
*RC U651:C 7.726e-05
*RC U922:A 7.726e-05
*END

*R_NET cmd_valid 9.180e-03
*DRIVER cmd_valid
*CELL NULL
*C2_R1_C1 4.590e-03 9.100e-03 4.590e-03 
*LOADS
*RC U352:A 8.354e-05
*RC U868:B 8.354e-05
*END

*R_NET cmd_ready 2.234e-02
*DRIVER cmd_ready_reg_reg:Q
*CELL fd3d1_hd
*C2_R1_C1 1.117e-02 9.460e-03 1.117e-02 
*LOADS
*RC U852:A 2.113e-04
*RC U868:A 2.113e-04
*RC cmd_ready 2.113e-04
*END

*R_NET data_in\[7\] 5.900e-03
*DRIVER data_in\[7\]
*CELL NULL
*C2_R1_C1 2.950e-03 7.370e-03 2.950e-03 
*LOADS
*RC U249:D 4.348e-05
*END

*R_NET data_in\[6\] 5.900e-03
*DRIVER data_in\[6\]
*CELL NULL
*C2_R1_C1 2.950e-03 7.370e-03 2.950e-03 
*LOADS
*RC U251:D 4.348e-05
*END

*R_NET data_in\[5\] 5.900e-03
*DRIVER data_in\[5\]
*CELL NULL
*C2_R1_C1 2.950e-03 7.370e-03 2.950e-03 
*LOADS
*RC U254:D 4.348e-05
*END

*R_NET data_in\[4\] 5.900e-03
*DRIVER data_in\[4\]
*CELL NULL
*C2_R1_C1 2.950e-03 7.370e-03 2.950e-03 
*LOADS
*RC U256:D 4.348e-05
*END

*R_NET data_in\[3\] 5.900e-03
*DRIVER data_in\[3\]
*CELL NULL
*C2_R1_C1 2.950e-03 7.370e-03 2.950e-03 
*LOADS
*RC U259:D 4.348e-05
*END

*R_NET data_in\[2\] 5.900e-03
*DRIVER data_in\[2\]
*CELL NULL
*C2_R1_C1 2.950e-03 7.370e-03 2.950e-03 
*LOADS
*RC U261:D 4.348e-05
*END

*R_NET data_in\[1\] 5.900e-03
*DRIVER data_in\[1\]
*CELL NULL
*C2_R1_C1 2.950e-03 7.370e-03 2.950e-03 
*LOADS
*RC U264:D 4.348e-05
*END

*R_NET data_in\[0\] 5.900e-03
*DRIVER data_in\[0\]
*CELL NULL
*C2_R1_C1 2.950e-03 7.370e-03 2.950e-03 
*LOADS
*RC U267:D 4.348e-05
*END

*R_NET data_in_valid 4.740e-03
*DRIVER data_in_valid
*CELL NULL
*C2_R1_C1 2.370e-03 7.370e-03 2.370e-03 
*LOADS
*RC U853:B 3.493e-05
*END

*R_NET data_in_ready 1.731e-02
*DRIVER data_in_ready_reg_reg:Q
*CELL fd3d1_hd
*C2_R1_C1 8.655e-03 9.100e-03 8.655e-03 
*LOADS
*RC U853:A 1.575e-04
*RC data_in_ready 1.575e-04
*END

*R_NET data_in_last 4.510e-03
*DRIVER data_in_last
*CELL NULL
*C2_R1_C1 2.255e-03 7.370e-03 2.255e-03 
*LOADS
*RC U246:B 3.324e-05
*END

*R_NET data_out\[7\] 1.740e-02
*DRIVER data_out_reg_reg_7_:Q
*CELL fds2eqd1_hd
*C2_R1_C1 8.700e-03 9.100e-03 8.700e-03 
*LOADS
*RC U676:C 1.583e-04
*RC data_out\[7\] 1.583e-04
*END

*R_NET data_out\[6\] 1.740e-02
*DRIVER data_out_reg_reg_6_:Q
*CELL fds2eqd1_hd
*C2_R1_C1 8.700e-03 9.100e-03 8.700e-03 
*LOADS
*RC U671:C 1.583e-04
*RC data_out\[6\] 1.583e-04
*END

*R_NET data_out\[5\] 1.740e-02
*DRIVER data_out_reg_reg_5_:Q
*CELL fds2eqd1_hd
*C2_R1_C1 8.700e-03 9.100e-03 8.700e-03 
*LOADS
*RC U670:C 1.583e-04
*RC data_out\[5\] 1.583e-04
*END

*R_NET data_out\[4\] 1.740e-02
*DRIVER data_out_reg_reg_4_:Q
*CELL fds2eqd1_hd
*C2_R1_C1 8.700e-03 9.100e-03 8.700e-03 
*LOADS
*RC U669:C 1.583e-04
*RC data_out\[4\] 1.583e-04
*END

*R_NET data_out\[3\] 1.740e-02
*DRIVER data_out_reg_reg_3_:Q
*CELL fds2eqd1_hd
*C2_R1_C1 8.700e-03 9.100e-03 8.700e-03 
*LOADS
*RC U668:C 1.583e-04
*RC data_out\[3\] 1.583e-04
*END

*R_NET data_out\[2\] 1.740e-02
*DRIVER data_out_reg_reg_2_:Q
*CELL fds2eqd1_hd
*C2_R1_C1 8.700e-03 9.100e-03 8.700e-03 
*LOADS
*RC U667:C 1.583e-04
*RC data_out\[2\] 1.583e-04
*END

*R_NET data_out\[1\] 1.740e-02
*DRIVER data_out_reg_reg_1_:Q
*CELL fds2eqd1_hd
*C2_R1_C1 8.700e-03 9.100e-03 8.700e-03 
*LOADS
*RC U666:C 1.583e-04
*RC data_out\[1\] 1.583e-04
*END

*R_NET data_out\[0\] 1.740e-02
*DRIVER data_out_reg_reg_0_:Q
*CELL fds2eqd1_hd
*C2_R1_C1 8.700e-03 9.100e-03 8.700e-03 
*LOADS
*RC U683:C 1.583e-04
*RC data_out\[0\] 1.583e-04
*END

*R_NET data_out_valid 2.339e-02
*DRIVER data_out_valid_reg_reg:Q
*CELL fd3d1_hd
*C2_R1_C1 1.170e-02 9.460e-03 1.170e-02 
*LOADS
*RC U634:A 2.213e-04
*RC U98:B 2.213e-04
*RC data_out_valid 2.213e-04
*END

*R_NET data_out_ready 5.220e-03
*DRIVER data_out_ready
*CELL NULL
*C2_R1_C1 2.610e-03 7.370e-03 2.610e-03 
*LOADS
*RC U536:A 3.847e-05
*END

*R_NET data_out_last 1.749e-02
*DRIVER data_out_last_reg_reg:Q
*CELL fds2eqd1_hd
*C2_R1_C1 8.745e-03 9.100e-03 8.745e-03 
*LOADS
*RC U240:A 1.592e-04
*RC data_out_last 1.592e-04
*END

*R_NET scl_i 4.610e-03
*DRIVER scl_i
*CELL NULL
*C2_R1_C1 2.305e-03 7.370e-03 2.305e-03 
*LOADS
*RC scl_i_reg_reg:D 3.398e-05
*END

*R_NET scl_o 2.835e-02
*DRIVER scl_o_reg_reg:Q
*CELL fd3d1_hd
*C2_R1_C1 1.417e-02 1.094e-02 1.417e-02 
*LOADS
*RC U635:A 3.101e-04
*RC U914:A 3.101e-04
*RC U88:C 3.101e-04
*RC scl_o 3.101e-04
*END

*R_NET sda_i 4.610e-03
*DRIVER sda_i
*CELL NULL
*C2_R1_C1 2.305e-03 7.370e-03 2.305e-03 
*LOADS
*RC sda_i_reg_reg:D 3.398e-05
*END

*R_NET sda_o 1.731e-02
*DRIVER sda_o_reg_reg:Q
*CELL fd3d1_hd
*C2_R1_C1 8.655e-03 9.100e-03 8.655e-03 
*LOADS
*RC U684:A 1.575e-04
*RC sda_o 1.575e-04
*END

*R_NET sda_t 2.396e-02
*DRIVER sda_o_reg_reg:QN
*CELL fd3d1_hd
*C2_R1_C1 1.198e-02 9.460e-03 1.198e-02 
*LOADS
*RC U71:A 2.267e-04
*RC U74:A 2.267e-04
*RC sda_t 2.267e-04
*END

*R_NET busy 1.350e-02
*DRIVER busy_reg_reg:Q
*CELL fd3qd1_hd
*C2_R1_C1 6.750e-03 7.370e-03 6.750e-03 
*LOADS
*RC busy 9.950e-05
*END

*R_NET bus_control 1.740e-02
*DRIVER bus_control_reg_reg:Q
*CELL fd3d1_hd
*C2_R1_C1 8.700e-03 9.100e-03 8.700e-03 
*LOADS
*RC U637:C 1.583e-04
*RC bus_control 1.583e-04
*END

*R_NET bus_active 3.580e-02
*DRIVER bus_active_reg_reg:Q
*CELL fd3qd1_hd
*C2_R1_C1 1.790e-02 1.549e-02 1.790e-02 
*LOADS
*RC U68:B 5.545e-04
*RC U209:A 5.545e-04
*RC U280:A 5.545e-04
*RC U292:C 5.545e-04
*RC bus_active 5.545e-04
*END

*R_NET missed_ack 1.350e-02
*DRIVER missed_ack_reg_reg:Q
*CELL fd3d1_hd
*C2_R1_C1 6.750e-03 7.370e-03 6.750e-03 
*LOADS
*RC missed_ack 9.950e-05
*END

*R_NET scl_i_reg 8.700e-03
*DRIVER scl_i_reg_reg:Q
*CELL fd3d1_hd
*C2_R1_C1 4.350e-03 9.100e-03 4.350e-03 
*LOADS
*RC U611:B 7.917e-05
*RC U687:B 7.917e-05
*END

*R_NET sda_i_reg 1.341e-02
*DRIVER sda_i_reg_reg:Q
*CELL fd3d1_hd
*C2_R1_C1 6.705e-03 9.460e-03 6.705e-03 
*LOADS
*RC U610:A 1.269e-04
*RC last_sda_i_reg_reg:D 1.269e-04
*RC phy_rx_data_reg_reg:D 1.269e-04
*END

*R_NET last_sda_i_reg 4.740e-03
*DRIVER last_sda_i_reg_reg:Q
*CELL fd3d1_hd
*C2_R1_C1 2.370e-03 7.370e-03 2.370e-03 
*LOADS
*RC U612:B 3.493e-05
*END

*R_NET sda_posedge 4.590e-03
*DRIVER U610:Y
*CELL ad2d1_hd
*C2_R1_C1 2.295e-03 7.370e-03 2.295e-03 
*LOADS
*RC U687:A 3.383e-05
*END

*R_NET sda_negedge 4.590e-03
*DRIVER U612:Y
*CELL ad2d1_hd
*C2_R1_C1 2.295e-03 7.370e-03 2.295e-03 
*LOADS
*RC U611:A 3.383e-05
*END

*R_NET start_bit 1.050e-02
*DRIVER U611:Y
*CELL ad2d1_hd
*C2_R1_C1 5.250e-03 9.100e-03 5.250e-03 
*LOADS
*RC U908:B 9.555e-05
*RC U68:C 9.555e-05
*END

*R_NET stop_bit 5.520e-03
*DRIVER U687:Y
*CELL ad2d1_hd
*C2_R1_C1 2.760e-03 7.370e-03 2.760e-03 
*LOADS
*RC U908:A 4.068e-05
*END

*R_NET addr_reg\[6\] 1.446e-02
*DRIVER addr_reg_reg_6_:Q
*CELL fds2eqd1_hd
*C2_R1_C1 7.230e-03 9.460e-03 7.230e-03 
*LOADS
*RC U389:A 1.368e-04
*RC U86:D 1.368e-04
*RC U307:A 1.368e-04
*END

*R_NET addr_reg\[5\] 1.992e-02
*DRIVER addr_reg_reg_5_:Q
*CELL fds2eqd1_hd
*C2_R1_C1 9.960e-03 1.094e-02 9.960e-03 
*LOADS
*RC U413:A 2.179e-04
*RC U418:A 2.179e-04
*RC U86:B 2.179e-04
*RC U308:B 2.179e-04
*END

*R_NET addr_reg\[4\] 1.455e-02
*DRIVER addr_reg_reg_4_:Q
*CELL fds2eqd1_hd
*C2_R1_C1 7.275e-03 9.460e-03 7.275e-03 
*LOADS
*RC U390:A 1.376e-04
*RC U86:H 1.376e-04
*RC U309:A 1.376e-04
*END

*R_NET addr_reg\[3\] 1.436e-02
*DRIVER addr_reg_reg_3_:Q
*CELL fds2eqd1_hd
*C2_R1_C1 7.180e-03 9.460e-03 7.180e-03 
*LOADS
*RC U391:A 1.358e-04
*RC U86:F 1.358e-04
*RC U310:A 1.358e-04
*END

*R_NET addr_reg\[2\] 2.109e-02
*DRIVER addr_reg_reg_2_:Q
*CELL fds2eqd1_hd
*C2_R1_C1 1.054e-02 1.094e-02 1.054e-02 
*LOADS
*RC U410:A 2.307e-04
*RC U415:A 2.307e-04
*RC U85:D 2.307e-04
*RC U311:B 2.307e-04
*END

*R_NET addr_reg\[1\] 1.442e-02
*DRIVER addr_reg_reg_1_:Q
*CELL fds2eqd1_hd
*C2_R1_C1 7.210e-03 9.460e-03 7.210e-03 
*LOADS
*RC U414:A 1.364e-04
*RC U84:B 1.364e-04
*RC U312:A 1.364e-04
*END

*R_NET addr_reg\[0\] 2.099e-02
*DRIVER addr_reg_reg_0_:Q
*CELL fds2eqd1_hd
*C2_R1_C1 1.049e-02 1.094e-02 1.049e-02 
*LOADS
*RC U356:A 2.296e-04
*RC U469:A 2.296e-04
*RC U85:B 2.296e-04
*RC U319:B 2.296e-04
*END

*R_NET data_reg\[7\] 9.710e-03
*DRIVER data_reg_reg_7_:Q
*CELL fds2eqd1_hd
*C2_R1_C1 4.855e-03 9.100e-03 4.855e-03 
*LOADS
*RC U81:D 8.836e-05
*RC U249:A 8.836e-05
*END

*R_NET data_reg\[6\] 1.434e-02
*DRIVER data_reg_reg_6_:Q
*CELL fds2eqd1_hd
*C2_R1_C1 7.170e-03 9.460e-03 7.170e-03 
*LOADS
*RC U676:A 1.357e-04
*RC U81:B 1.357e-04
*RC U252:A 1.357e-04
*END

*R_NET data_reg\[5\] 2.155e-02
*DRIVER data_reg_reg_5_:Q
*CELL fds2eqd1_hd
*C2_R1_C1 1.077e-02 1.094e-02 1.077e-02 
*LOADS
*RC U671:A 2.358e-04
*RC U81:H 2.358e-04
*RC U251:A 2.358e-04
*RC U254:A 2.358e-04
*END

*R_NET data_reg\[4\] 1.425e-02
*DRIVER data_reg_reg_4_:Q
*CELL fds2eqd1_hd
*C2_R1_C1 7.125e-03 9.460e-03 7.125e-03 
*LOADS
*RC U670:A 1.348e-04
*RC U81:F 1.348e-04
*RC U257:A 1.348e-04
*END

*R_NET data_reg\[3\] 2.146e-02
*DRIVER data_reg_reg_3_:Q
*CELL fds2eqd1_hd
*C2_R1_C1 1.073e-02 1.094e-02 1.073e-02 
*LOADS
*RC U669:A 2.348e-04
*RC U82:D 2.348e-04
*RC U256:A 2.348e-04
*RC U259:A 2.348e-04
*END

*R_NET data_reg\[2\] 1.434e-02
*DRIVER data_reg_reg_2_:Q
*CELL fds2eqd1_hd
*C2_R1_C1 7.170e-03 9.460e-03 7.170e-03 
*LOADS
*RC U668:A 1.357e-04
*RC U82:B 1.357e-04
*RC U262:A 1.357e-04
*END

*R_NET data_reg\[1\] 2.155e-02
*DRIVER data_reg_reg_1_:Q
*CELL fds2eqd1_hd
*C2_R1_C1 1.077e-02 1.094e-02 1.077e-02 
*LOADS
*RC U667:A 2.358e-04
*RC U82:H 2.358e-04
*RC U261:A 2.358e-04
*RC U264:A 2.358e-04
*END

*R_NET data_reg\[0\] 1.425e-02
*DRIVER data_reg_reg_0_:Q
*CELL fds2eqd1_hd
*C2_R1_C1 7.125e-03 9.460e-03 7.125e-03 
*LOADS
*RC U666:A 1.348e-04
*RC U82:F 1.348e-04
*RC U268:A 1.348e-04
*END

*R_NET last_reg 1.001e-02
*DRIVER last_reg_reg:Q
*CELL fds2eqd1_hd
*C2_R1_C1 5.005e-03 9.100e-03 5.005e-03 
*LOADS
*RC U442:A 9.109e-05
*RC U247:C 9.109e-05
*END

*R_NET mode_read_reg 2.227e-02
*DRIVER mode_read_reg_reg:Q
*CELL fds2eqd1_hd
*C2_R1_C1 1.113e-02 1.094e-02 1.113e-02 
*LOADS
*RC U650:A 2.436e-04
*RC U77:A 2.436e-04
*RC U276:B 2.436e-04
*RC U298:A 2.436e-04
*END

*R_NET mode_write_multiple_reg 8.540e-03
*DRIVER mode_write_multiple_reg_reg:Q
*CELL fds2eqd1_hd
*C2_R1_C1 4.270e-03 9.100e-03 4.270e-03 
*LOADS
*RC U441:A 7.771e-05
*RC U655:A 7.771e-05
*END

*R_NET mode_stop_reg 2.571e-02
*DRIVER mode_stop_reg_reg:Q
*CELL fds2eqd1_hd
*C2_R1_C1 1.286e-02 1.549e-02 1.286e-02 
*LOADS
*RC U348:A 3.982e-04
*RC U483:B 3.982e-04
*RC U651:A 3.982e-04
*RC U894:A 3.982e-04
*RC U202:B 3.982e-04
*END

*R_NET bit_count_reg_0_ 5.897e-02
*DRIVER bit_count_reg_reg_0_:Q
*CELL fds2eqd1_hd
*C2_R1_C1 2.948e-02 2.188e-02 2.948e-02 
*LOADS
*RC U697:A 1.290e-03
*RC U696:A 1.290e-03
*RC U695:A 1.290e-03
*RC U694:A 1.290e-03
*RC U693:A 1.290e-03
*RC U692:A 1.290e-03
*RC U691:A 1.290e-03
*RC U690:A 1.290e-03
*RC U689:A 1.290e-03
*RC U762:A 1.290e-03
*RC gt_x_195_U16:B 1.290e-03
*RC U285:A 1.290e-03
*RC U285:D 1.290e-03
*END

*R_NET state_reg\[4\] 3.587e-02
*DRIVER state_reg_reg_4_:Q
*CELL fd3qd1_hd
*C2_R1_C1 1.794e-02 1.715e-02 1.794e-02 
*LOADS
*RC U473:A 6.152e-04
*RC U601:A 6.152e-04
*RC U703:B 6.152e-04
*RC U702:B 6.152e-04
*RC U701:B 6.152e-04
*RC U838:B 6.152e-04
*RC U229:A 6.152e-04
*END

*R_NET state_reg\[3\] 5.237e-02
*DRIVER state_reg_reg_3_:Q
*CELL fd3d1_hd
*C2_R1_C1 2.619e-02 2.139e-02 2.619e-02 
*LOADS
*RC U708:A 1.120e-03
*RC U707:A 1.120e-03
*RC U706:A 1.120e-03
*RC U705:A 1.120e-03
*RC U704:B 1.120e-03
*RC U703:A 1.120e-03
*RC U702:A 1.120e-03
*RC U701:A 1.120e-03
*RC U718:A 1.120e-03
*RC U717:A 1.120e-03
*RC U715:A 1.120e-03
*END

*R_NET state_reg\[2\] 5.384e-02
*DRIVER state_reg_reg_2_:Q
*CELL fd3d1_hd
*C2_R1_C1 2.692e-02 2.139e-02 2.692e-02 
*LOADS
*RC U719:B 1.152e-03
*RC U718:B 1.152e-03
*RC U717:B 1.152e-03
*RC U716:B 1.152e-03
*RC U715:B 1.152e-03
*RC U714:B 1.152e-03
*RC U713:B 1.152e-03
*RC U712:A 1.152e-03
*RC U711:A 1.152e-03
*RC U710:A 1.152e-03
*RC U709:B 1.152e-03
*END

*R_NET state_reg\[1\] 4.235e-02
*DRIVER state_reg_reg_1_:Q
*CELL fd3d1_hd
*C2_R1_C1 2.118e-02 2.066e-02 2.118e-02 
*LOADS
*RC U446:A 8.750e-04
*RC U472:A 8.750e-04
*RC U505:A 8.750e-04
*RC U528:A 8.750e-04
*RC U533:A 8.750e-04
*RC U555:A 8.750e-04
*RC U605:A 8.750e-04
*RC U631:B 8.750e-04
*END

*R_NET state_reg\[0\] 4.448e-02
*DRIVER state_reg_reg_0_:Q
*CELL fd3d1_hd
*C2_R1_C1 2.224e-02 2.066e-02 2.224e-02 
*LOADS
*RC U373:B 9.190e-04
*RC U419:B 9.190e-04
*RC U472:B 9.190e-04
*RC U533:B 9.190e-04
*RC U556:B 9.190e-04
*RC U632:B 9.190e-04
*RC U909:A 9.190e-04
*RC U911:A 9.190e-04
*END

*R_NET phy_state_reg\[4\] 5.193e-02
*DRIVER phy_state_reg_reg_4_:Q
*CELL fd3qd1_hd
*C2_R1_C1 2.597e-02 2.115e-02 2.597e-02 
*LOADS
*RC U550:B 1.098e-03
*RC U677:A 1.098e-03
*RC U740:B 1.098e-03
*RC U739:B 1.098e-03
*RC U738:B 1.098e-03
*RC U737:B 1.098e-03
*RC U836:B 1.098e-03
*RC U890:A 1.098e-03
*RC U181:A 1.098e-03
*RC U195:B 1.098e-03
*END

*R_NET phy_state_reg\[3\] 5.856e-02
*DRIVER phy_state_reg_reg_3_:Q
*CELL fd3d1_hd
*C2_R1_C1 2.928e-02 2.188e-02 2.928e-02 
*LOADS
*RC U744:A 1.281e-03
*RC U743:A 1.281e-03
*RC U742:A 1.281e-03
*RC U741:A 1.281e-03
*RC U740:A 1.281e-03
*RC U739:A 1.281e-03
*RC U738:A 1.281e-03
*RC U737:A 1.281e-03
*RC U754:A 1.281e-03
*RC U752:A 1.281e-03
*RC U750:A 1.281e-03
*RC U748:A 1.281e-03
*RC U185:F 1.281e-03
*END

*R_NET phy_state_reg\[2\] 6.018e-02
*DRIVER phy_state_reg_reg_2_:Q
*CELL fd3d1_hd
*C2_R1_C1 3.009e-02 2.188e-02 3.009e-02 
*LOADS
*RC U757:A 1.317e-03
*RC U756:A 1.317e-03
*RC U755:B 1.317e-03
*RC U754:B 1.317e-03
*RC U753:B 1.317e-03
*RC U752:B 1.317e-03
*RC U751:B 1.317e-03
*RC U750:B 1.317e-03
*RC U749:B 1.317e-03
*RC U748:B 1.317e-03
*RC U747:A 1.317e-03
*RC U746:A 1.317e-03
*RC U745:D 1.317e-03
*END

*R_NET phy_state_reg\[1\] 5.856e-02
*DRIVER phy_state_reg_reg_1_:Q
*CELL fd3d1_hd
*C2_R1_C1 2.928e-02 2.188e-02 2.928e-02 
*LOADS
*RC U736:A 1.281e-03
*RC U735:A 1.281e-03
*RC U734:A 1.281e-03
*RC U733:A 1.281e-03
*RC U732:A 1.281e-03
*RC U731:A 1.281e-03
*RC U730:A 1.281e-03
*RC U729:A 1.281e-03
*RC U728:A 1.281e-03
*RC U727:A 1.281e-03
*RC U726:A 1.281e-03
*RC U725:A 1.281e-03
*RC U190:F 1.281e-03
*END

*R_NET phy_state_reg\[0\] 5.405e-02
*DRIVER phy_state_reg_reg_0_:Q
*CELL fd3d1_hd
*C2_R1_C1 2.703e-02 2.139e-02 2.703e-02 
*LOADS
*RC U451:B 1.156e-03
*RC U454:B 1.156e-03
*RC U524:B 1.156e-03
*RC U527:B 1.156e-03
*RC U608:A 1.156e-03
*RC U732:B 1.156e-03
*RC U731:B 1.156e-03
*RC U728:B 1.156e-03
*RC U727:B 1.156e-03
*RC U910:A 1.156e-03
*RC U191:B 1.156e-03
*END

*R_NET N127 2.548e-02
*DRIVER U925:Y
*CELL xo2d1_hd
*C2_R1_C1 1.274e-02 1.549e-02 1.274e-02 
*LOADS
*RC U340:A 3.947e-04
*RC U354:B 3.947e-04
*RC U370:A 3.947e-04
*RC U923:B 3.947e-04
*RC U924:A 3.947e-04
*END

*R_NET N128 4.571e-02
*DRIVER U868:Y
*CELL ad2d1_hd
*C2_R1_C1 2.285e-02 2.066e-02 2.285e-02 
*LOADS
*RC U354:A 9.444e-04
*RC U443:B 9.444e-04
*RC U444:A 9.444e-04
*RC U59:B 9.444e-04
*RC U215:A 9.444e-04
*RC U220:A 9.444e-04
*RC U225:A 9.444e-04
*RC U325:B 9.444e-04
*END

*R_NET N129 2.091e-02
*DRIVER U922:Y
*CELL ad2d1_hd
*C2_R1_C1 1.045e-02 1.094e-02 1.045e-02 
*LOADS
*RC U340:B 2.288e-04
*RC U529:A 2.288e-04
*RC U220:B 2.288e-04
*RC U923:A 2.288e-04
*END

*R_NET N130 2.086e-02
*DRIVER U852:Y
*CELL ad2d1_hd
*C2_R1_C1 1.043e-02 1.094e-02 1.043e-02 
*LOADS
*RC U443:A 2.282e-04
*RC U530:A 2.282e-04
*RC U59:C 2.282e-04
*RC U220:C 2.282e-04
*END

*R_NET phy_rx_data_reg 1.496e-02
*DRIVER phy_rx_data_reg_reg:Q
*CELL fds2eqd1_hd
*C2_R1_C1 7.480e-03 9.460e-03 7.480e-03 
*LOADS
*RC U683:B 1.415e-04
*RC U64:B 1.415e-04
*RC U267:B 1.415e-04
*END

*R_NET phy_start_bit 3.074e-02
*DRIVER U188:Y
*CELL nr2d1_hd
*C2_R1_C1 1.537e-02 1.674e-02 1.537e-02 
*LOADS
*RC U343:B 5.146e-04
*RC U351:A 5.146e-04
*RC U627:A 5.146e-04
*RC U865:A 5.146e-04
*RC U926:A 5.146e-04
*RC U187:D 5.146e-04
*END

*R_NET phy_stop_bit 8.790e-03
*DRIVER U60:Y
*CELL scg20d1_hd
*C2_R1_C1 4.395e-03 9.100e-03 4.395e-03 
*LOADS
*RC U341:A 7.999e-05
*RC U362:A 7.999e-05
*END

*R_NET phy_write_bit 1.445e-02
*DRIVER U57:Y
*CELL nr2bd1_hd
*C2_R1_C1 7.225e-03 9.460e-03 7.225e-03 
*LOADS
*RC U343:A 1.367e-04
*RC U350:A 1.367e-04
*RC U366:A 1.367e-04
*END

*R_NET phy_read_bit 1.445e-02
*DRIVER U62:Y
*CELL nr2d1_hd
*C2_R1_C1 7.225e-03 9.460e-03 7.225e-03 
*LOADS
*RC U342:A 1.367e-04
*RC U364:A 1.367e-04
*RC U365:A 1.367e-04
*END

*R_NET N131 5.600e-03
*DRIVER U634:Y
*CELL ad2d1_hd
*C2_R1_C1 2.800e-03 7.370e-03 2.800e-03 
*LOADS
*RC U92:C 4.127e-05
*END

*R_NET N132 5.001e-02
*DRIVER U333:Y
*CELL ad2d1_hd
*C2_R1_C1 2.501e-02 2.115e-02 2.501e-02 
*LOADS
*RC U396:A 1.058e-03
*RC U408:A 1.058e-03
*RC U457:A 1.058e-03
*RC U466:A 1.058e-03
*RC U476:A 1.058e-03
*RC U500:A 1.058e-03
*RC U659:A 1.058e-03
*RC state_reg_reg_4__U2:AN 1.058e-03
*RC U229:B 1.058e-03
*RC U230:AN 1.058e-03
*END

*R_NET N133 2.005e-02
*DRIVER U500:Y
*CELL ivd1_hd
*C2_R1_C1 1.003e-02 1.094e-02 1.003e-02 
*LOADS
*RC U332:B 2.193e-04
*RC U334:B 2.193e-04
*RC U337:B 2.193e-04
*RC U601:B 2.193e-04
*END

*R_NET N135 1.343e-02
*DRIVER U473:Y
*CELL ivd1_hd
*C2_R1_C1 6.715e-03 9.460e-03 6.715e-03 
*LOADS
*RC U332:A 1.270e-04
*RC U334:A 1.270e-04
*RC U337:A 1.270e-04
*END

*R_NET N137 2.398e-02
*DRIVER state_reg_reg_3_:QN
*CELL fd3d1_hd
*C2_R1_C1 1.199e-02 1.549e-02 1.199e-02 
*LOADS
*RC U358:A 3.715e-04
*RC U719:A 3.715e-04
*RC U716:A 3.715e-04
*RC U714:A 3.715e-04
*RC U713:A 3.715e-04
*END

*R_NET N138 2.497e-02
*DRIVER state_reg_reg_2_:QN
*CELL fd3d1_hd
*C2_R1_C1 1.248e-02 1.549e-02 1.248e-02 
*LOADS
*RC U358:B 3.868e-04
*RC U708:B 3.868e-04
*RC U707:B 3.868e-04
*RC U706:B 3.868e-04
*RC U705:B 3.868e-04
*END

*R_NET N139 4.590e-03
*DRIVER U358:Y
*CELL ad2d1_hd
*C2_R1_C1 2.295e-03 7.370e-03 2.295e-03 
*LOADS
*RC U854:A 3.383e-05
*END

*R_NET N140 4.740e-03
*DRIVER U359:Y
*CELL ad2d1_hd
*C2_R1_C1 2.370e-03 7.370e-03 2.370e-03 
*LOADS
*RC U854:B 3.493e-05
*END

*R_NET N141 4.777e-02
*DRIVER U854:Y
*CELL ad2d1_hd
*C2_R1_C1 2.389e-02 2.090e-02 2.389e-02 
*LOADS
*RC U369:B 9.986e-04
*RC U372:A 9.986e-04
*RC U397:A 9.986e-04
*RC U400:B 9.986e-04
*RC U409:A 9.986e-04
*RC U458:A 9.986e-04
*RC U6:B 9.986e-04
*RC U292:B 9.986e-04
*RC U318:A 9.986e-04
*END

*R_NET N142 4.980e-03
*DRIVER U715:Y
*CELL or2d1_hd
*C2_R1_C1 2.490e-03 7.370e-03 2.490e-03 
*LOADS
*RC U445:A 3.670e-05
*END

*R_NET N143 5.190e-03
*DRIVER U446:Y
*CELL or2d1_hd
*C2_R1_C1 2.595e-03 7.370e-03 2.595e-03 
*LOADS
*RC U445:B 3.825e-05
*END

*R_NET N144 2.764e-02
*DRIVER U445:Y
*CELL or2d1_hd
*C2_R1_C1 1.382e-02 1.549e-02 1.382e-02 
*LOADS
*RC U5:B 4.281e-04
*RC U301:B 4.281e-04
*RC U225:C 4.281e-04
*RC U222:B 4.281e-04
*RC U870:A 4.281e-04
*END

*R_NET N145 3.371e-02
*DRIVER U870:Y
*CELL ivd1_hd
*C2_R1_C1 1.686e-02 1.715e-02 1.686e-02 
*LOADS
*RC U347:C 5.781e-04
*RC U400:A 5.781e-04
*RC U430:A 5.781e-04
*RC U456:A 5.781e-04
*RC U463:A 5.781e-04
*RC U97:A 5.781e-04
*RC U324:B 5.781e-04
*END

*R_NET N146 5.520e-03
*DRIVER U717:Y
*CELL or2d1_hd
*C2_R1_C1 2.760e-03 7.370e-03 2.760e-03 
*LOADS
*RC U872:A 4.068e-05
*END

*R_NET N147 5.640e-03
*DRIVER U419:Y
*CELL or2d1_hd
*C2_R1_C1 2.820e-03 7.370e-03 2.820e-03 
*LOADS
*RC U872:B 4.157e-05
*END

*R_NET N150 5.520e-03
*DRIVER U718:Y
*CELL or2d1_hd
*C2_R1_C1 2.760e-03 7.370e-03 2.760e-03 
*LOADS
*RC U869:A 4.068e-05
*END

*R_NET N151 5.640e-03
*DRIVER U532:Y
*CELL or2d1_hd
*C2_R1_C1 2.820e-03 7.370e-03 2.820e-03 
*LOADS
*RC U869:B 4.157e-05
*END

*R_NET N154 5.520e-03
*DRIVER U707:Y
*CELL or2d1_hd
*C2_R1_C1 2.760e-03 7.370e-03 2.760e-03 
*LOADS
*RC U335:A 4.068e-05
*END

*R_NET N155 5.640e-03
*DRIVER U533:Y
*CELL or2d1_hd
*C2_R1_C1 2.820e-03 7.370e-03 2.820e-03 
*LOADS
*RC U335:B 4.157e-05
*END

*R_NET N158 5.520e-03
*DRIVER U708:Y
*CELL or2d1_hd
*C2_R1_C1 2.760e-03 7.370e-03 2.760e-03 
*LOADS
*RC U336:A 4.068e-05
*END

*R_NET N159 5.640e-03
*DRIVER U528:Y
*CELL or2d1_hd
*C2_R1_C1 2.820e-03 7.370e-03 2.820e-03 
*LOADS
*RC U336:B 4.157e-05
*END

*R_NET N162 5.520e-03
*DRIVER U706:Y
*CELL or2d1_hd
*C2_R1_C1 2.760e-03 7.370e-03 2.760e-03 
*LOADS
*RC U339:A 4.068e-05
*END

*R_NET N163 5.640e-03
*DRIVER U556:Y
*CELL or2d1_hd
*C2_R1_C1 2.820e-03 7.370e-03 2.820e-03 
*LOADS
*RC U339:B 4.157e-05
*END

*R_NET N166 5.520e-03
*DRIVER U705:Y
*CELL or2d1_hd
*C2_R1_C1 2.760e-03 7.370e-03 2.760e-03 
*LOADS
*RC U488:A 4.068e-05
*END

*R_NET N167 5.640e-03
*DRIVER U489:Y
*CELL or2d1_hd
*C2_R1_C1 2.820e-03 7.370e-03 2.820e-03 
*LOADS
*RC U488:B 4.157e-05
*END

*R_NET N170 4.980e-03
*DRIVER U716:Y
*CELL or2d1_hd
*C2_R1_C1 2.490e-03 7.370e-03 2.490e-03 
*LOADS
*RC U471:A 3.670e-05
*END

*R_NET N171 5.190e-03
*DRIVER U472:Y
*CELL or2d1_hd
*C2_R1_C1 2.595e-03 7.370e-03 2.595e-03 
*LOADS
*RC U471:B 3.825e-05
*END

*R_NET N172 2.261e-02
*DRIVER U471:Y
*CELL or2d1_hd
*C2_R1_C1 1.130e-02 1.094e-02 1.130e-02 
*LOADS
*RC U3:B 2.474e-04
*RC U286:B 2.474e-04
*RC U226:B 2.474e-04
*RC U871:A 2.474e-04
*END

*R_NET N173 2.950e-02
*DRIVER U871:Y
*CELL ivd1_hd
*C2_R1_C1 1.475e-02 1.674e-02 1.475e-02 
*LOADS
*RC U437:B 4.938e-04
*RC U504:A 4.938e-04
*RC U562:A 4.938e-04
*RC U585:A 4.938e-04
*RC U598:A 4.938e-04
*RC U202:C 4.938e-04
*END

*R_NET N174 5.520e-03
*DRIVER U714:Y
*CELL or2d1_hd
*C2_R1_C1 2.760e-03 7.370e-03 2.760e-03 
*LOADS
*RC U554:A 4.068e-05
*END

*R_NET N175 5.640e-03
*DRIVER U555:Y
*CELL or2d1_hd
*C2_R1_C1 2.820e-03 7.370e-03 2.820e-03 
*LOADS
*RC U554:B 4.157e-05
*END

*R_NET N178 7.060e-03
*DRIVER U719:Y
*CELL or2d1_hd
*C2_R1_C1 3.530e-03 7.370e-03 3.530e-03 
*LOADS
*RC U845:A 5.203e-05
*END

*R_NET N179 8.070e-03
*DRIVER U373:Y
*CELL or2d1_hd
*C2_R1_C1 4.035e-03 7.370e-03 4.035e-03 
*LOADS
*RC U845:B 5.948e-05
*END

*R_NET N182 5.520e-03
*DRIVER U713:Y
*CELL or2d1_hd
*C2_R1_C1 2.760e-03 7.370e-03 2.760e-03 
*LOADS
*RC U855:A 4.068e-05
*END

*R_NET N183 5.640e-03
*DRIVER U499:Y
*CELL or2d1_hd
*C2_R1_C1 2.820e-03 7.370e-03 2.820e-03 
*LOADS
*RC U855:B 4.157e-05
*END

*R_NET N229 5.190e-03
*DRIVER U531:Y
*CELL ivd1_hd
*C2_R1_C1 2.595e-03 7.370e-03 2.595e-03 
*LOADS
*RC U530:B 3.825e-05
*END

*R_NET N232 1.095e-02
*DRIVER U851:Y
*CELL or2d1_hd
*C2_R1_C1 5.475e-03 9.100e-03 5.475e-03 
*LOADS
*RC U279:B 9.965e-05
*RC U299:A 9.965e-05
*END

*R_NET N249 5.830e-03
*DRIVER U924:Y
*CELL ivd1_hd
*C2_R1_C1 2.915e-03 7.370e-03 2.915e-03 
*LOADS
*RC U325:A 4.297e-05
*END

*R_NET N255 4.720e-03
*DRIVER U370:Y
*CELL or2d1_hd
*C2_R1_C1 2.360e-03 7.370e-03 2.360e-03 
*LOADS
*RC U225:B 3.479e-05
*END

*R_NET N278 1.640e-02
*DRIVER U867:Y
*CELL or2d1_hd
*C2_R1_C1 8.200e-03 9.460e-03 8.200e-03 
*LOADS
*RC U216:A 1.551e-04
*RC U278:B 1.551e-04
*RC U294:B 1.551e-04
*END

*R_NET N312 5.830e-03
*DRIVER U340:Y
*CELL or2d1_hd
*C2_R1_C1 2.915e-03 7.370e-03 2.915e-03 
*LOADS
*RC U59:A 4.297e-05
*END

*R_NET N354 4.730e-03
*DRIVER U689:Y
*CELL xn2d1_hd
*C2_R1_C1 2.365e-03 7.370e-03 2.365e-03 
*LOADS
*RC U615:A 3.486e-05
*END

*R_NET N355 4.730e-03
*DRIVER U614:Y
*CELL xn2d1_hd
*C2_R1_C1 2.365e-03 7.370e-03 2.365e-03 
*LOADS
*RC U613:A 3.486e-05
*END

*R_NET N356 5.830e-03
*DRIVER U656:Y
*CELL xn2d1_hd
*C2_R1_C1 2.915e-03 7.370e-03 2.915e-03 
*LOADS
*RC U273:C 4.297e-05
*END

*R_NET N357 1.505e-02
*DRIVER gt_x_2_U4:Y
*CELL oa21d1_hd
*C2_R1_C1 7.525e-03 9.460e-03 7.525e-03 
*LOADS
*RC U353:A 1.424e-04
*RC U368:B 1.424e-04
*RC U436:A 1.424e-04
*END

*R_NET N358 3.074e-02
*DRIVER gt_x_195_U4:Y
*CELL oa21d1_hd
*C2_R1_C1 1.537e-02 1.674e-02 1.537e-02 
*LOADS
*RC U437:A 5.146e-04
*RC U501:A 5.146e-04
*RC U226:A 5.146e-04
*RC U243:A 5.146e-04
*RC U368:A 5.146e-04
*RC U407:A 5.146e-04
*END

*R_NET N361 5.910e-03
*DRIVER U353:Y
*CELL or2d1_hd
*C2_R1_C1 2.955e-03 7.370e-03 2.955e-03 
*LOADS
*RC U224:B 4.356e-05
*END

*R_NET N377 9.570e-03
*DRIVER U853:Y
*CELL ad2d1_hd
*C2_R1_C1 4.785e-03 9.100e-03 4.785e-03 
*LOADS
*RC U277:A 8.709e-05
*RC U297:B 8.709e-05
*END

*R_NET N402 1.550e-02
*DRIVER U441:Y
*CELL ad2d1_hd
*C2_R1_C1 7.750e-03 9.460e-03 7.750e-03 
*LOADS
*RC U440:A 1.466e-04
*RC U535:A 1.466e-04
*RC U894:B 1.466e-04
*END

*R_NET N405 5.190e-03
*DRIVER U535:Y
*CELL or2d1_hd
*C2_R1_C1 2.595e-03 7.370e-03 2.595e-03 
*LOADS
*RC U534:B 3.825e-05
*END

*R_NET N407 4.730e-03
*DRIVER U348:Y
*CELL ad2d1_hd
*C2_R1_C1 2.365e-03 7.370e-03 2.365e-03 
*LOADS
*RC U347:A 3.486e-05
*END

*R_NET N444 4.550e-03
*DRIVER U319:Y
*CELL ad2d1_hd
*C2_R1_C1 2.275e-03 7.370e-03 2.275e-03 
*LOADS
*RC addr_reg_reg_0_:D 3.353e-05
*END

*R_NET N445 4.550e-03
*DRIVER U312:Y