*SPEF "IEEE 1481-1999"
*DESIGN "iir_hpf"
*DATE "Mon May  4 16:14:57 2020"
*VENDOR "SYNOPSYS INC"
*PROGRAM "Synopsys Design Compiler cmos"
*VERSION "F-2011.09-SP5-3"
*DESIGN_FLOW "SYNTHESIS"
*DIVIDER /
*DELIMITER :
*BUS_DELIMITER []
*T_UNIT 1.0 NS
*C_UNIT 1.0 PF
*R_UNIT 1.0 KOHM
*L_UNIT 1.0 HENRY

*PORTS

i_X_DATA\[31\] I *L 0.000e+00 *S 0.000e+00 0.000e+00 
i_X_DATA\[30\] I *L 0.000e+00 *S 0.000e+00 0.000e+00 
i_X_DATA\[29\] I *L 0.000e+00 *S 0.000e+00 0.000e+00 
i_X_DATA\[28\] I *L 0.000e+00 *S 0.000e+00 0.000e+00 
i_X_DATA\[27\] I *L 0.000e+00 *S 0.000e+00 0.000e+00 
i_X_DATA\[26\] I *L 0.000e+00 *S 0.000e+00 0.000e+00 
i_X_DATA\[25\] I *L 0.000e+00 *S 0.000e+00 0.000e+00 
i_X_DATA\[24\] I *L 0.000e+00 *S 0.000e+00 0.000e+00 
i_X_DATA\[23\] I *L 0.000e+00 *S 0.000e+00 0.000e+00 
i_X_DATA\[22\] I *L 0.000e+00 *S 0.000e+00 0.000e+00 
i_X_DATA\[21\] I *L 0.000e+00 *S 0.000e+00 0.000e+00 
i_X_DATA\[20\] I *L 0.000e+00 *S 0.000e+00 0.000e+00 
i_X_DATA\[19\] I *L 0.000e+00 *S 0.000e+00 0.000e+00 
i_X_DATA\[18\] I *L 0.000e+00 *S 0.000e+00 0.000e+00 
i_X_DATA\[17\] I *L 0.000e+00 *S 0.000e+00 0.000e+00 
i_X_DATA\[16\] I *L 0.000e+00 *S 0.000e+00 0.000e+00 
i_X_DATA\[15\] I *L 0.000e+00 *S 0.000e+00 0.000e+00 
i_X_DATA\[14\] I *L 0.000e+00 *S 0.000e+00 0.000e+00 
i_X_DATA\[13\] I *L 0.000e+00 *S 0.000e+00 0.000e+00 
i_X_DATA\[12\] I *L 0.000e+00 *S 0.000e+00 0.000e+00 
i_X_DATA\[11\] I *L 0.000e+00 *S 0.000e+00 0.000e+00 
i_X_DATA\[10\] I *L 0.000e+00 *S 0.000e+00 0.000e+00 
i_X_DATA\[9\] I *L 0.000e+00 *S 0.000e+00 0.000e+00 
i_X_DATA\[8\] I *L 0.000e+00 *S 0.000e+00 0.000e+00 
i_X_DATA\[7\] I *L 0.000e+00 *S 0.000e+00 0.000e+00 
i_X_DATA\[6\] I *L 0.000e+00 *S 0.000e+00 0.000e+00 
i_X_DATA\[5\] I *L 0.000e+00 *S 0.000e+00 0.000e+00 
i_X_DATA\[4\] I *L 0.000e+00 *S 0.000e+00 0.000e+00 
i_X_DATA\[3\] I *L 0.000e+00 *S 0.000e+00 0.000e+00 
i_X_DATA\[2\] I *L 0.000e+00 *S 0.000e+00 0.000e+00 
i_X_DATA\[1\] I *L 0.000e+00 *S 0.000e+00 0.000e+00 
i_X_DATA\[0\] I *L 0.000e+00 *S 0.000e+00 0.000e+00 
i_X_DATA_VALID I *L 0.000e+00 *S 0.000e+00 0.000e+00 
o_X_DATA_READY O *L 0.000e+00 *S 1.510e-01 1.183e-01 
o_Y_DATA\[31\] O *L 0.000e+00 *S 1.868e-01 2.259e-01 
o_Y_DATA\[30\] O *L 0.000e+00 *S 1.269e-01 1.662e-01 
o_Y_DATA\[29\] O *L 0.000e+00 *S 1.269e-01 1.662e-01 
o_Y_DATA\[28\] O *L 0.000e+00 *S 1.269e-01 1.662e-01 
o_Y_DATA\[27\] O *L 0.000e+00 *S 1.269e-01 1.662e-01 
o_Y_DATA\[26\] O *L 0.000e+00 *S 1.269e-01 1.662e-01 
o_Y_DATA\[25\] O *L 0.000e+00 *S 1.269e-01 1.662e-01 
o_Y_DATA\[24\] O *L 0.000e+00 *S 1.269e-01 1.662e-01 
o_Y_DATA\[23\] O *L 0.000e+00 *S 1.269e-01 1.662e-01 
o_Y_DATA\[22\] O *L 0.000e+00 *S 1.269e-01 1.662e-01 
o_Y_DATA\[21\] O *L 0.000e+00 *S 1.269e-01 1.662e-01 
o_Y_DATA\[20\] O *L 0.000e+00 *S 1.269e-01 1.662e-01 
o_Y_DATA\[19\] O *L 0.000e+00 *S 1.269e-01 1.662e-01 
o_Y_DATA\[18\] O *L 0.000e+00 *S 1.269e-01 1.662e-01 
o_Y_DATA\[17\] O *L 0.000e+00 *S 1.269e-01 1.662e-01 
o_Y_DATA\[16\] O *L 0.000e+00 *S 1.269e-01 1.662e-01 
o_Y_DATA\[15\] O *L 0.000e+00 *S 1.269e-01 1.662e-01 
o_Y_DATA\[14\] O *L 0.000e+00 *S 1.269e-01 1.662e-01 
o_Y_DATA\[13\] O *L 0.000e+00 *S 1.269e-01 1.662e-01 
o_Y_DATA\[12\] O *L 0.000e+00 *S 1.269e-01 1.662e-01 
o_Y_DATA\[11\] O *L 0.000e+00 *S 1.269e-01 1.662e-01 
o_Y_DATA\[10\] O *L 0.000e+00 *S 1.269e-01 1.662e-01 
o_Y_DATA\[9\] O *L 0.000e+00 *S 1.269e-01 1.662e-01 
o_Y_DATA\[8\] O *L 0.000e+00 *S 1.269e-01 1.662e-01 
o_Y_DATA\[7\] O *L 0.000e+00 *S 1.269e-01 1.662e-01 
o_Y_DATA\[6\] O *L 0.000e+00 *S 1.269e-01 1.662e-01 
o_Y_DATA\[5\] O *L 0.000e+00 *S 1.269e-01 1.662e-01 
o_Y_DATA\[4\] O *L 0.000e+00 *S 1.269e-01 1.662e-01 
o_Y_DATA\[3\] O *L 0.000e+00 *S 1.269e-01 1.662e-01 
o_Y_DATA\[2\] O *L 0.000e+00 *S 1.269e-01 1.662e-01 
o_Y_DATA\[1\] O *L 0.000e+00 *S 1.269e-01 1.662e-01 
o_Y_DATA\[0\] O *L 0.000e+00 *S 1.269e-01 1.662e-01 
o_Y_DATA_VALID O *L 0.000e+00 *S 1.352e-01 1.747e-01 
i_Y_ACK I *L 0.000e+00 *S 0.000e+00 0.000e+00 
i_CLK I *L 0.000e+00 *S 0.000e+00 0.000e+00 
i_RSTN I *L 0.000e+00 *S 0.000e+00 0.000e+00 

*R_NET i_X_DATA\[31\] 5.330e-03
*DRIVER i_X_DATA\[31\]
*CELL NULL
*C2_R1_C1 2.665e-03 7.710e-03 2.665e-03 
*LOADS
*RC U470:B 4.109e-05
*END

*R_NET i_X_DATA\[30\] 5.330e-03
*DRIVER i_X_DATA\[30\]
*CELL NULL
*C2_R1_C1 2.665e-03 7.710e-03 2.665e-03 
*LOADS
*RC U471:B 4.109e-05
*END

*R_NET i_X_DATA\[29\] 5.330e-03
*DRIVER i_X_DATA\[29\]
*CELL NULL
*C2_R1_C1 2.665e-03 7.710e-03 2.665e-03 
*LOADS
*RC U472:B 4.109e-05
*END

*R_NET i_X_DATA\[28\] 5.330e-03
*DRIVER i_X_DATA\[28\]
*CELL NULL
*C2_R1_C1 2.665e-03 7.710e-03 2.665e-03 
*LOADS
*RC U473:B 4.109e-05
*END

*R_NET i_X_DATA\[27\] 5.330e-03
*DRIVER i_X_DATA\[27\]
*CELL NULL
*C2_R1_C1 2.665e-03 7.710e-03 2.665e-03 
*LOADS
*RC U474:B 4.109e-05
*END

*R_NET i_X_DATA\[26\] 5.330e-03
*DRIVER i_X_DATA\[26\]
*CELL NULL
*C2_R1_C1 2.665e-03 7.710e-03 2.665e-03 
*LOADS
*RC U475:B 4.109e-05
*END

*R_NET i_X_DATA\[25\] 5.330e-03
*DRIVER i_X_DATA\[25\]
*CELL NULL
*C2_R1_C1 2.665e-03 7.710e-03 2.665e-03 
*LOADS
*RC U476:B 4.109e-05
*END

*R_NET i_X_DATA\[24\] 5.330e-03
*DRIVER i_X_DATA\[24\]
*CELL NULL
*C2_R1_C1 2.665e-03 7.710e-03 2.665e-03 
*LOADS
*RC U477:B 4.109e-05
*END

*R_NET i_X_DATA\[23\] 5.330e-03
*DRIVER i_X_DATA\[23\]
*CELL NULL
*C2_R1_C1 2.665e-03 7.710e-03 2.665e-03 
*LOADS
*RC U478:B 4.109e-05
*END

*R_NET i_X_DATA\[22\] 5.330e-03
*DRIVER i_X_DATA\[22\]
*CELL NULL
*C2_R1_C1 2.665e-03 7.710e-03 2.665e-03 
*LOADS
*RC U479:B 4.109e-05
*END

*R_NET i_X_DATA\[21\] 5.330e-03
*DRIVER i_X_DATA\[21\]
*CELL NULL
*C2_R1_C1 2.665e-03 7.710e-03 2.665e-03 
*LOADS
*RC U480:B 4.109e-05
*END

*R_NET i_X_DATA\[20\] 5.330e-03
*DRIVER i_X_DATA\[20\]
*CELL NULL
*C2_R1_C1 2.665e-03 7.710e-03 2.665e-03 
*LOADS
*RC U481:B 4.109e-05
*END

*R_NET i_X_DATA\[19\] 5.330e-03
*DRIVER i_X_DATA\[19\]
*CELL NULL
*C2_R1_C1 2.665e-03 7.710e-03 2.665e-03 
*LOADS
*RC U482:B 4.109e-05
*END

*R_NET i_X_DATA\[18\] 5.330e-03
*DRIVER i_X_DATA\[18\]
*CELL NULL
*C2_R1_C1 2.665e-03 7.710e-03 2.665e-03 
*LOADS
*RC U483:B 4.109e-05
*END

*R_NET i_X_DATA\[17\] 5.330e-03
*DRIVER i_X_DATA\[17\]
*CELL NULL
*C2_R1_C1 2.665e-03 7.710e-03 2.665e-03 
*LOADS
*RC U484:B 4.109e-05
*END

*R_NET i_X_DATA\[16\] 5.330e-03
*DRIVER i_X_DATA\[16\]
*CELL NULL
*C2_R1_C1 2.665e-03 7.710e-03 2.665e-03 
*LOADS
*RC U485:B 4.109e-05
*END

*R_NET i_X_DATA\[15\] 5.330e-03
*DRIVER i_X_DATA\[15\]
*CELL NULL
*C2_R1_C1 2.665e-03 7.710e-03 2.665e-03 
*LOADS
*RC U486:B 4.109e-05
*END

*R_NET i_X_DATA\[14\] 5.330e-03
*DRIVER i_X_DATA\[14\]
*CELL NULL
*C2_R1_C1 2.665e-03 7.710e-03 2.665e-03 
*LOADS
*RC U487:B 4.109e-05
*END

*R_NET i_X_DATA\[13\] 5.330e-03
*DRIVER i_X_DATA\[13\]
*CELL NULL
*C2_R1_C1 2.665e-03 7.710e-03 2.665e-03 
*LOADS
*RC U488:B 4.109e-05
*END

*R_NET i_X_DATA\[12\] 5.330e-03
*DRIVER i_X_DATA\[12\]
*CELL NULL
*C2_R1_C1 2.665e-03 7.710e-03 2.665e-03 
*LOADS
*RC U489:B 4.109e-05
*END

*R_NET i_X_DATA\[11\] 5.330e-03
*DRIVER i_X_DATA\[11\]
*CELL NULL
*C2_R1_C1 2.665e-03 7.710e-03 2.665e-03 
*LOADS
*RC U490:B 4.109e-05
*END

*R_NET i_X_DATA\[10\] 5.330e-03
*DRIVER i_X_DATA\[10\]
*CELL NULL
*C2_R1_C1 2.665e-03 7.710e-03 2.665e-03 
*LOADS
*RC U491:B 4.109e-05
*END

*R_NET i_X_DATA\[9\] 5.330e-03
*DRIVER i_X_DATA\[9\]
*CELL NULL
*C2_R1_C1 2.665e-03 7.710e-03 2.665e-03 
*LOADS
*RC U492:B 4.109e-05
*END

*R_NET i_X_DATA\[8\] 5.330e-03
*DRIVER i_X_DATA\[8\]
*CELL NULL
*C2_R1_C1 2.665e-03 7.710e-03 2.665e-03 
*LOADS
*RC U493:B 4.109e-05
*END

*R_NET i_X_DATA\[7\] 5.330e-03
*DRIVER i_X_DATA\[7\]
*CELL NULL
*C2_R1_C1 2.665e-03 7.710e-03 2.665e-03 
*LOADS
*RC U494:B 4.109e-05
*END

*R_NET i_X_DATA\[6\] 5.330e-03
*DRIVER i_X_DATA\[6\]
*CELL NULL
*C2_R1_C1 2.665e-03 7.710e-03 2.665e-03 
*LOADS
*RC U495:B 4.109e-05
*END

*R_NET i_X_DATA\[5\] 5.330e-03
*DRIVER i_X_DATA\[5\]
*CELL NULL
*C2_R1_C1 2.665e-03 7.710e-03 2.665e-03 
*LOADS
*RC U496:B 4.109e-05
*END

*R_NET i_X_DATA\[4\] 5.330e-03
*DRIVER i_X_DATA\[4\]
*CELL NULL
*C2_R1_C1 2.665e-03 7.710e-03 2.665e-03 
*LOADS
*RC U497:B 4.109e-05
*END

*R_NET i_X_DATA\[3\] 5.330e-03
*DRIVER i_X_DATA\[3\]
*CELL NULL
*C2_R1_C1 2.665e-03 7.710e-03 2.665e-03 
*LOADS
*RC U498:B 4.109e-05
*END

*R_NET i_X_DATA\[2\] 5.330e-03
*DRIVER i_X_DATA\[2\]
*CELL NULL
*C2_R1_C1 2.665e-03 7.710e-03 2.665e-03 
*LOADS
*RC U499:B 4.109e-05
*END

*R_NET i_X_DATA\[1\] 5.330e-03
*DRIVER i_X_DATA\[1\]
*CELL NULL
*C2_R1_C1 2.665e-03 7.710e-03 2.665e-03 
*LOADS
*RC U500:B 4.109e-05
*END

*R_NET i_X_DATA\[0\] 5.330e-03
*DRIVER i_X_DATA\[0\]
*CELL NULL
*C2_R1_C1 2.665e-03 7.710e-03 2.665e-03 
*LOADS
*RC U501:B 4.109e-05
*END

*R_NET i_X_DATA_VALID 1.248e-02
*DRIVER i_X_DATA_VALID
*CELL NULL
*C2_R1_C1 6.240e-03 7.710e-03 6.240e-03 
*LOADS
*RC U469:B 9.622e-05
*END

*R_NET o_X_DATA_READY 1.676e-02
*DRIVER o_X_DATA_READY_reg:Q
*CELL fd1eqd1_hd
*C2_R1_C1 8.380e-03 9.910e-03 8.380e-03 
*LOADS
*RC U469:A 1.661e-04
*RC o_X_DATA_READY 1.661e-04
*END

*R_NET o_Y_DATA\[31\] 2.096e-02
*DRIVER o_Y_DATA_reg_31_:Q
*CELL fd2qd1_hd
*C2_R1_C1 1.048e-02 1.357e-02 1.048e-02 
*LOADS
*RC U535:B 2.844e-04
*RC U744:A 2.844e-04
*RC U807:A 2.844e-04
*RC o_Y_DATA\[31\] 2.844e-04
*END

*R_NET o_Y_DATA\[30\] 1.374e-02
*DRIVER o_Y_DATA_reg_30_:Q
*CELL fd2qd1_hd
*C2_R1_C1 6.870e-03 1.106e-02 6.870e-03 
*LOADS
*RC U533:B 1.520e-04
*RC U628:A 1.520e-04
*RC o_Y_DATA\[30\] 1.520e-04
*END

*R_NET o_Y_DATA\[29\] 1.374e-02
*DRIVER o_Y_DATA_reg_29_:Q
*CELL fd2qd1_hd
*C2_R1_C1 6.870e-03 1.106e-02 6.870e-03 
*LOADS
*RC U591:B 1.520e-04
*RC U618:A 1.520e-04
*RC o_Y_DATA\[29\] 1.520e-04
*END

*R_NET o_Y_DATA\[28\] 1.374e-02
*DRIVER o_Y_DATA_reg_28_:Q
*CELL fd2qd1_hd
*C2_R1_C1 6.870e-03 1.106e-02 6.870e-03 
*LOADS
*RC U580:B 1.520e-04
*RC U619:A 1.520e-04
*RC o_Y_DATA\[28\] 1.520e-04
*END

*R_NET o_Y_DATA\[27\] 1.374e-02
*DRIVER o_Y_DATA_reg_27_:Q
*CELL fd2qd1_hd
*C2_R1_C1 6.870e-03 1.106e-02 6.870e-03 
*LOADS
*RC U590:B 1.520e-04
*RC U620:A 1.520e-04
*RC o_Y_DATA\[27\] 1.520e-04
*END

*R_NET o_Y_DATA\[26\] 1.374e-02
*DRIVER o_Y_DATA_reg_26_:Q
*CELL fd2qd1_hd
*C2_R1_C1 6.870e-03 1.106e-02 6.870e-03 
*LOADS
*RC U581:B 1.520e-04
*RC U616:A 1.520e-04
*RC o_Y_DATA\[26\] 1.520e-04
*END

*R_NET o_Y_DATA\[25\] 1.374e-02
*DRIVER o_Y_DATA_reg_25_:Q
*CELL fd2qd1_hd
*C2_R1_C1 6.870e-03 1.106e-02 6.870e-03 
*LOADS
*RC U589:B 1.520e-04
*RC U617:A 1.520e-04
*RC o_Y_DATA\[25\] 1.520e-04
*END

*R_NET o_Y_DATA\[24\] 1.374e-02
*DRIVER o_Y_DATA_reg_24_:Q
*CELL fd2qd1_hd
*C2_R1_C1 6.870e-03 1.106e-02 6.870e-03 
*LOADS
*RC U584:B 1.520e-04
*RC U623:A 1.520e-04
*RC o_Y_DATA\[24\] 1.520e-04
*END

*R_NET o_Y_DATA\[23\] 1.374e-02
*DRIVER o_Y_DATA_reg_23_:Q
*CELL fd2qd1_hd
*C2_R1_C1 6.870e-03 1.106e-02 6.870e-03 
*LOADS
*RC U588:B 1.520e-04
*RC U637:A 1.520e-04
*RC o_Y_DATA\[23\] 1.520e-04
*END

*R_NET o_Y_DATA\[22\] 1.374e-02
*DRIVER o_Y_DATA_reg_22_:Q
*CELL fd2qd1_hd
*C2_R1_C1 6.870e-03 1.106e-02 6.870e-03 
*LOADS
*RC U582:B 1.520e-04
*RC U624:A 1.520e-04
*RC o_Y_DATA\[22\] 1.520e-04
*END

*R_NET o_Y_DATA\[21\] 1.374e-02
*DRIVER o_Y_DATA_reg_21_:Q
*CELL fd2qd1_hd
*C2_R1_C1 6.870e-03 1.106e-02 6.870e-03 
*LOADS
*RC U587:B 1.520e-04
*RC U621:A 1.520e-04
*RC o_Y_DATA\[21\] 1.520e-04
*END

*R_NET o_Y_DATA\[20\] 1.374e-02
*DRIVER o_Y_DATA_reg_20_:Q
*CELL fd2qd1_hd
*C2_R1_C1 6.870e-03 1.106e-02 6.870e-03 
*LOADS
*RC U586:B 1.520e-04
*RC U622:A 1.520e-04
*RC o_Y_DATA\[20\] 1.520e-04
*END

*R_NET o_Y_DATA\[19\] 1.374e-02
*DRIVER o_Y_DATA_reg_19_:Q
*CELL fd2qd1_hd
*C2_R1_C1 6.870e-03 1.106e-02 6.870e-03 
*LOADS
*RC U583:B 1.520e-04
*RC U626:A 1.520e-04
*RC o_Y_DATA\[19\] 1.520e-04
*END

*R_NET o_Y_DATA\[18\] 1.374e-02
*DRIVER o_Y_DATA_reg_18_:Q
*CELL fd2qd1_hd
*C2_R1_C1 6.870e-03 1.106e-02 6.870e-03 
*LOADS
*RC U579:B 1.520e-04
*RC U627:A 1.520e-04
*RC o_Y_DATA\[18\] 1.520e-04
*END

*R_NET o_Y_DATA\[17\] 1.374e-02
*DRIVER o_Y_DATA_reg_17_:Q
*CELL fd2qd1_hd
*C2_R1_C1 6.870e-03 1.106e-02 6.870e-03 
*LOADS
*RC U578:B 1.520e-04
*RC U612:A 1.520e-04
*RC o_Y_DATA\[17\] 1.520e-04
*END

*R_NET o_Y_DATA\[16\] 1.374e-02
*DRIVER o_Y_DATA_reg_16_:Q
*CELL fd2qd1_hd
*C2_R1_C1 6.870e-03 1.106e-02 6.870e-03 
*LOADS
*RC U577:B 1.520e-04
*RC U613:A 1.520e-04
*RC o_Y_DATA\[16\] 1.520e-04
*END

*R_NET o_Y_DATA\[15\] 1.374e-02
*DRIVER o_Y_DATA_reg_15_:Q
*CELL fd2qd1_hd
*C2_R1_C1 6.870e-03 1.106e-02 6.870e-03 
*LOADS
*RC U576:B 1.520e-04
*RC U614:A 1.520e-04
*RC o_Y_DATA\[15\] 1.520e-04
*END

*R_NET o_Y_DATA\[14\] 1.374e-02
*DRIVER o_Y_DATA_reg_14_:Q
*CELL fd2qd1_hd
*C2_R1_C1 6.870e-03 1.106e-02 6.870e-03 
*LOADS
*RC U575:B 1.520e-04
*RC U615:A 1.520e-04
*RC o_Y_DATA\[14\] 1.520e-04
*END

*R_NET o_Y_DATA\[13\] 1.374e-02
*DRIVER o_Y_DATA_reg_13_:Q
*CELL fd2qd1_hd
*C2_R1_C1 6.870e-03 1.106e-02 6.870e-03 
*LOADS
*RC U574:B 1.520e-04
*RC U611:A 1.520e-04
*RC o_Y_DATA\[13\] 1.520e-04
*END

*R_NET o_Y_DATA\[12\] 1.374e-02
*DRIVER o_Y_DATA_reg_12_:Q
*CELL fd2qd1_hd
*C2_R1_C1 6.870e-03 1.106e-02 6.870e-03 
*LOADS
*RC U573:B 1.520e-04
*RC U625:A 1.520e-04
*RC o_Y_DATA\[12\] 1.520e-04
*END

*R_NET o_Y_DATA\[11\] 1.374e-02
*DRIVER o_Y_DATA_reg_11_:Q
*CELL fd2qd1_hd
*C2_R1_C1 6.870e-03 1.106e-02 6.870e-03 
*LOADS
*RC U572:B 1.520e-04
*RC U638:A 1.520e-04
*RC o_Y_DATA\[11\] 1.520e-04
*END

*R_NET o_Y_DATA\[10\] 1.374e-02
*DRIVER o_Y_DATA_reg_10_:Q
*CELL fd2qd1_hd
*C2_R1_C1 6.870e-03 1.106e-02 6.870e-03 
*LOADS
*RC U571:B 1.520e-04
*RC U640:A 1.520e-04
*RC o_Y_DATA\[10\] 1.520e-04
*END

*R_NET o_Y_DATA\[9\] 1.374e-02
*DRIVER o_Y_DATA_reg_9_:Q
*CELL fd2qd1_hd
*C2_R1_C1 6.870e-03 1.106e-02 6.870e-03 
*LOADS
*RC U570:B 1.520e-04
*RC U639:A 1.520e-04
*RC o_Y_DATA\[9\] 1.520e-04
*END

*R_NET o_Y_DATA\[8\] 1.374e-02
*DRIVER o_Y_DATA_reg_8_:Q
*CELL fd2qd1_hd
*C2_R1_C1 6.870e-03 1.106e-02 6.870e-03 
*LOADS
*RC U569:B 1.520e-04
*RC U642:A 1.520e-04
*RC o_Y_DATA\[8\] 1.520e-04
*END

*R_NET o_Y_DATA\[7\] 1.374e-02
*DRIVER o_Y_DATA_reg_7_:Q
*CELL fd2qd1_hd
*C2_R1_C1 6.870e-03 1.106e-02 6.870e-03 
*LOADS
*RC U568:B 1.520e-04
*RC U630:A 1.520e-04
*RC o_Y_DATA\[7\] 1.520e-04
*END

*R_NET o_Y_DATA\[6\] 1.374e-02
*DRIVER o_Y_DATA_reg_6_:Q
*CELL fd2qd1_hd
*C2_R1_C1 6.870e-03 1.106e-02 6.870e-03 
*LOADS
*RC U567:B 1.520e-04
*RC U636:A 1.520e-04
*RC o_Y_DATA\[6\] 1.520e-04
*END

*R_NET o_Y_DATA\[5\] 1.374e-02
*DRIVER o_Y_DATA_reg_5_:Q
*CELL fd2qd1_hd
*C2_R1_C1 6.870e-03 1.106e-02 6.870e-03 
*LOADS
*RC U566:B 1.520e-04
*RC U631:A 1.520e-04
*RC o_Y_DATA\[5\] 1.520e-04
*END

*R_NET o_Y_DATA\[4\] 1.374e-02
*DRIVER o_Y_DATA_reg_4_:Q
*CELL fd2qd1_hd
*C2_R1_C1 6.870e-03 1.106e-02 6.870e-03 
*LOADS
*RC U565:B 1.520e-04
*RC U634:A 1.520e-04
*RC o_Y_DATA\[4\] 1.520e-04
*END

*R_NET o_Y_DATA\[3\] 1.374e-02
*DRIVER o_Y_DATA_reg_3_:Q
*CELL fd2qd1_hd
*C2_R1_C1 6.870e-03 1.106e-02 6.870e-03 
*LOADS
*RC U585:B 1.520e-04
*RC U635:A 1.520e-04
*RC o_Y_DATA\[3\] 1.520e-04
*END

*R_NET o_Y_DATA\[2\] 1.374e-02
*DRIVER o_Y_DATA_reg_2_:Q
*CELL fd2qd1_hd
*C2_R1_C1 6.870e-03 1.106e-02 6.870e-03 
*LOADS
*RC U564:B 1.520e-04
*RC U632:A 1.520e-04
*RC o_Y_DATA\[2\] 1.520e-04
*END

*R_NET o_Y_DATA\[1\] 1.374e-02
*DRIVER o_Y_DATA_reg_1_:Q
*CELL fd2qd1_hd
*C2_R1_C1 6.870e-03 1.106e-02 6.870e-03 
*LOADS
*RC U563:B 1.520e-04
*RC U633:A 1.520e-04
*RC o_Y_DATA\[1\] 1.520e-04
*END

*R_NET o_Y_DATA\[0\] 1.374e-02
*DRIVER o_Y_DATA_reg_0_:Q
*CELL fd2qd1_hd
*C2_R1_C1 6.870e-03 1.106e-02 6.870e-03 
*LOADS
*RC U562:B 1.520e-04
*RC U629:A 1.520e-04
*RC o_Y_DATA\[0\] 1.520e-04
*END

*R_NET o_Y_DATA_VALID 1.474e-02
*DRIVER o_Y_DATA_VALID_reg:Q
*CELL fd2qd1_hd
*C2_R1_C1 7.370e-03 1.106e-02 7.370e-03 
*LOADS
*RC U608:A 1.630e-04
*RC U704:B 1.630e-04
*RC o_Y_DATA_VALID 1.630e-04
*END

*R_NET i_Y_ACK 6.320e-03
*DRIVER i_Y_ACK
*CELL NULL
*C2_R1_C1 3.160e-03 7.710e-03 3.160e-03 
*LOADS
*RC U704:A 4.873e-05
*END

*R_NET i_CLK 1.130e+01
*DRIVER i_CLK
*CELL NULL
*C2_R1_C1 5.651e+00 0.000e+00 5.651e+00 
*LOADS
*RC o_X_DATA_READY_reg:CK 0.000e+00
*RC r_pstate_reg_0_:CK 0.000e+00
*RC r_pstate_reg_1_:CK 0.000e+00
*RC o_Y_DATA_VALID_reg:CK 0.000e+00
*RC r_x_data_reg_31_:CK 0.000e+00
*RC r_x_data_reg_30_:CK 0.000e+00
*RC r_x_data_reg_29_:CK 0.000e+00
*RC r_x_data_reg_28_:CK 0.000e+00
*RC r_x_data_reg_27_:CK 0.000e+00
*RC r_x_data_reg_26_:CK 0.000e+00
*RC r_x_data_reg_25_:CK 0.000e+00
*RC r_x_data_reg_24_:CK 0.000e+00
*RC r_x_data_reg_23_:CK 0.000e+00
*RC r_x_data_reg_22_:CK 0.000e+00
*RC r_x_data_reg_21_:CK 0.000e+00
*RC r_x_data_reg_20_:CK 0.000e+00
*RC r_x_data_reg_19_:CK 0.000e+00
*RC r_x_data_reg_18_:CK 0.000e+00
*RC r_x_data_reg_17_:CK 0.000e+00
*RC r_x_data_reg_16_:CK 0.000e+00
*RC r_x_data_reg_15_:CK 0.000e+00
*RC r_x_data_reg_14_:CK 0.000e+00
*RC r_x_data_reg_13_:CK 0.000e+00
*RC r_x_data_reg_12_:CK 0.000e+00
*RC r_x_data_reg_11_:CK 0.000e+00
*RC r_x_data_reg_10_:CK 0.000e+00
*RC r_x_data_reg_9_:CK 0.000e+00
*RC r_x_data_reg_8_:CK 0.000e+00
*RC r_x_data_reg_7_:CK 0.000e+00
*RC r_x_data_reg_6_:CK 0.000e+00
*RC r_x_data_reg_5_:CK 0.000e+00
*RC r_x_data_reg_4_:CK 0.000e+00
*RC r_x_data_reg_3_:CK 0.000e+00
*RC r_x_data_reg_2_:CK 0.000e+00
*RC r_x_data_reg_1_:CK 0.000e+00
*RC r_x_data_reg_0_:CK 0.000e+00
*RC r_mult_Z_ACK_reg:CK 0.000e+00
*RC r_y_data_reg_31_:CK 0.000e+00
*RC r_y_data_reg_30_:CK 0.000e+00
*RC r_y_data_reg_29_:CK 0.000e+00
*RC r_y_data_reg_28_:CK 0.000e+00
*RC r_y_data_reg_27_:CK 0.000e+00
*RC r_y_data_reg_26_:CK 0.000e+00
*RC r_y_data_reg_25_:CK 0.000e+00
*RC r_y_data_reg_24_:CK 0.000e+00
*RC r_y_data_reg_23_:CK 0.000e+00
*RC r_y_data_reg_22_:CK 0.000e+00
*RC r_y_data_reg_21_:CK 0.000e+00
*RC r_y_data_reg_20_:CK 0.000e+00
*RC r_y_data_reg_19_:CK 0.000e+00
*RC r_y_data_reg_18_:CK 0.000e+00
*RC r_y_data_reg_17_:CK 0.000e+00
*RC r_y_data_reg_16_:CK 0.000e+00
*RC r_y_data_reg_15_:CK 0.000e+00
*RC r_y_data_reg_14_:CK 0.000e+00
*RC r_y_data_reg_13_:CK 0.000e+00
*RC r_y_data_reg_12_:CK 0.000e+00
*RC r_y_data_reg_11_:CK 0.000e+00
*RC r_y_data_reg_10_:CK 0.000e+00
*RC r_y_data_reg_9_:CK 0.000e+00
*RC r_y_data_reg_8_:CK 0.000e+00
*RC r_y_data_reg_7_:CK 0.000e+00
*RC r_y_data_reg_6_:CK 0.000e+00
*RC r_y_data_reg_5_:CK 0.000e+00
*RC r_y_data_reg_4_:CK 0.000e+00
*RC r_y_data_reg_3_:CK 0.000e+00
*RC r_y_data_reg_2_:CK 0.000e+00
*RC r_counter_reg_0_:CK 0.000e+00
*RC r_counter_reg_1_:CK 0.000e+00
*RC r_add_AB_STB_reg:CK 0.000e+00
*RC r_add_Z_ACK_reg:CK 0.000e+00
*RC o_Y_DATA_reg_31_:CK 0.000e+00
*RC o_Y_DATA_reg_30_:CK 0.000e+00
*RC o_Y_DATA_reg_29_:CK 0.000e+00
*RC o_Y_DATA_reg_28_:CK 0.000e+00
*RC o_Y_DATA_reg_27_:CK 0.000e+00
*RC o_Y_DATA_reg_26_:CK 0.000e+00
*RC o_Y_DATA_reg_25_:CK 0.000e+00
*RC o_Y_DATA_reg_24_:CK 0.000e+00
*RC o_Y_DATA_reg_23_:CK 0.000e+00
*RC o_Y_DATA_reg_22_:CK 0.000e+00
*RC o_Y_DATA_reg_21_:CK 0.000e+00
*RC o_Y_DATA_reg_20_:CK 0.000e+00
*RC o_Y_DATA_reg_19_:CK 0.000e+00
*RC o_Y_DATA_reg_18_:CK 0.000e+00
*RC o_Y_DATA_reg_17_:CK 0.000e+00
*RC o_Y_DATA_reg_16_:CK 0.000e+00
*RC o_Y_DATA_reg_15_:CK 0.000e+00
*RC o_Y_DATA_reg_14_:CK 0.000e+00
*RC o_Y_DATA_reg_13_:CK 0.000e+00
*RC o_Y_DATA_reg_12_:CK 0.000e+00
*RC o_Y_DATA_reg_11_:CK 0.000e+00
*RC o_Y_DATA_reg_10_:CK 0.000e+00
*RC o_Y_DATA_reg_9_:CK 0.000e+00
*RC o_Y_DATA_reg_8_:CK 0.000e+00
*RC o_Y_DATA_reg_7_:CK 0.000e+00
*RC o_Y_DATA_reg_6_:CK 0.000e+00
*RC o_Y_DATA_reg_5_:CK 0.000e+00
*RC o_Y_DATA_reg_4_:CK 0.000e+00
*RC o_Y_DATA_reg_3_:CK 0.000e+00
*RC o_Y_DATA_reg_2_:CK 0.000e+00
*RC o_Y_DATA_reg_1_:CK 0.000e+00
*RC o_Y_DATA_reg_0_:CK 0.000e+00
*RC r_x_data_reg_63_:CK 0.000e+00
*RC r_x_data_reg_62_:CK 0.000e+00
*RC r_x_data_reg_61_:CK 0.000e+00
*RC r_x_data_reg_60_:CK 0.000e+00
*RC r_x_data_reg_59_:CK 0.000e+00
*RC r_x_data_reg_58_:CK 0.000e+00
*RC r_x_data_reg_57_:CK 0.000e+00
*RC r_x_data_reg_56_:CK 0.000e+00
*RC r_x_data_reg_55_:CK 0.000e+00
*RC r_x_data_reg_54_:CK 0.000e+00
*RC r_x_data_reg_53_:CK 0.000e+00
*RC r_x_data_reg_52_:CK 0.000e+00
*RC r_x_data_reg_51_:CK 0.000e+00
*RC r_x_data_reg_50_:CK 0.000e+00
*RC r_x_data_reg_49_:CK 0.000e+00
*RC r_x_data_reg_48_:CK 0.000e+00
*RC r_x_data_reg_47_:CK 0.000e+00
*RC r_x_data_reg_46_:CK 0.000e+00
*RC r_x_data_reg_45_:CK 0.000e+00
*RC r_x_data_reg_44_:CK 0.000e+00
*RC r_x_data_reg_43_:CK 0.000e+00
*RC r_x_data_reg_42_:CK 0.000e+00
*RC r_x_data_reg_41_:CK 0.000e+00
*RC r_x_data_reg_40_:CK 0.000e+00
*RC r_x_data_reg_39_:CK 0.000e+00
*RC r_x_data_reg_38_:CK 0.000e+00
*RC r_x_data_reg_37_:CK 0.000e+00
*RC r_x_data_reg_36_:CK 0.000e+00
*RC r_x_data_reg_35_:CK 0.000e+00
*RC r_x_data_reg_34_:CK 0.000e+00
*RC r_x_data_reg_33_:CK 0.000e+00
*RC r_x_data_reg_32_:CK 0.000e+00
*RC r_add_B_reg_0_:CK 0.000e+00
*RC r_add_B_reg_1_:CK 0.000e+00
*RC r_add_B_reg_2_:CK 0.000e+00
*RC r_add_B_reg_3_:CK 0.000e+00
*RC r_add_B_reg_4_:CK 0.000e+00
*RC r_add_B_reg_5_:CK 0.000e+00
*RC r_add_B_reg_6_:CK 0.000e+00
*RC r_add_B_reg_7_:CK 0.000e+00
*RC r_add_B_reg_8_:CK 0.000e+00
*RC r_add_B_reg_9_:CK 0.000e+00
*RC r_add_B_reg_10_:CK 0.000e+00
*RC r_add_B_reg_11_:CK 0.000e+00
*RC r_add_B_reg_12_:CK 0.000e+00
*RC r_add_B_reg_13_:CK 0.000e+00
*RC r_add_B_reg_14_:CK 0.000e+00
*RC r_add_B_reg_15_:CK 0.000e+00
*RC r_add_B_reg_16_:CK 0.000e+00
*RC r_add_B_reg_17_:CK 0.000e+00
*RC r_add_B_reg_18_:CK 0.000e+00
*RC r_add_B_reg_19_:CK 0.000e+00
*RC r_add_B_reg_20_:CK 0.000e+00
*RC r_add_B_reg_21_:CK 0.000e+00
*RC r_add_B_reg_22_:CK 0.000e+00
*RC r_add_B_reg_23_:CK 0.000e+00
*RC r_add_B_reg_24_:CK 0.000e+00
*RC r_add_B_reg_25_:CK 0.000e+00
*RC r_add_B_reg_26_:CK 0.000e+00
*RC r_add_B_reg_27_:CK 0.000e+00
*RC r_add_B_reg_28_:CK 0.000e+00
*RC r_add_B_reg_29_:CK 0.000e+00
*RC r_add_B_reg_30_:CK 0.000e+00
*RC r_add_B_reg_31_:CK 0.000e+00
*RC r_y_data_reg_1_:CK 0.000e+00
*RC r_y_data_reg_0_:CK 0.000e+00
*RC r_add_A_reg_0_:CK 0.000e+00
*RC r_add_A_reg_31_:CK 0.000e+00
*RC r_add_A_reg_1_:CK 0.000e+00
*RC r_add_A_reg_2_:CK 0.000e+00
*RC r_add_A_reg_3_:CK 0.000e+00
*RC r_add_A_reg_4_:CK 0.000e+00
*RC r_add_A_reg_5_:CK 0.000e+00
*RC r_add_A_reg_6_:CK 0.000e+00
*RC r_add_A_reg_7_:CK 0.000e+00
*RC r_add_A_reg_8_:CK 0.000e+00
*RC r_add_A_reg_9_:CK 0.000e+00
*RC r_add_A_reg_10_:CK 0.000e+00
*RC r_add_A_reg_11_:CK 0.000e+00
*RC r_add_A_reg_12_:CK 0.000e+00
*RC r_add_A_reg_13_:CK 0.000e+00
*RC r_add_A_reg_14_:CK 0.000e+00
*RC r_add_A_reg_15_:CK 0.000e+00
*RC r_add_A_reg_16_:CK 0.000e+00
*RC r_add_A_reg_17_:CK 0.000e+00
*RC r_add_A_reg_18_:CK 0.000e+00
*RC r_add_A_reg_19_:CK 0.000e+00
*RC r_add_A_reg_20_:CK 0.000e+00
*RC r_add_A_reg_21_:CK 0.000e+00
*RC r_add_A_reg_22_:CK 0.000e+00
*RC r_add_A_reg_23_:CK 0.000e+00
*RC r_add_A_reg_24_:CK 0.000e+00
*RC r_add_A_reg_25_:CK 0.000e+00
*RC r_add_A_reg_26_:CK 0.000e+00
*RC r_add_A_reg_27_:CK 0.000e+00
*RC r_add_A_reg_28_:CK 0.000e+00
*RC r_add_A_reg_29_:CK 0.000e+00
*RC r_add_A_reg_30_:CK 0.000e+00
*RC r_mult_A_reg_29_:CK 0.000e+00
*RC r_mult_A_reg_28_:CK 0.000e+00
*RC r_mult_A_reg_27_:CK 0.000e+00
*RC r_mult_A_reg_26_:CK 0.000e+00
*RC r_mult_A_reg_25_:CK 0.000e+00
*RC r_mult_A_reg_24_:CK 0.000e+00
*RC r_mult_A_reg_22_:CK 0.000e+00
*RC r_mult_A_reg_21_:CK 0.000e+00
*RC r_mult_A_reg_17_:CK 0.000e+00
*RC r_mult_A_reg_16_:CK 0.000e+00
*RC r_mult_A_reg_14_:CK 0.000e+00
*RC r_mult_A_reg_13_:CK 0.000e+00
*RC r_mult_A_reg_11_:CK 0.000e+00
*RC r_mult_A_reg_9_:CK 0.000e+00
*RC r_mult_A_reg_8_:CK 0.000e+00
*RC r_mult_A_reg_7_:CK 0.000e+00
*RC r_mult_A_reg_6_:CK 0.000e+00
*RC r_mult_A_reg_5_:CK 0.000e+00
*RC r_mult_A_reg_1_:CK 0.000e+00
*RC r_mult_A_reg_0_:CK 0.000e+00
*RC r_mult_B_reg_30_:CK 0.000e+00
*RC r_mult_B_reg_29_:CK 0.000e+00
*RC r_mult_B_reg_28_:CK 0.000e+00
*RC r_mult_B_reg_27_:CK 0.000e+00
*RC r_mult_B_reg_26_:CK 0.000e+00
*RC r_mult_B_reg_25_:CK 0.000e+00
*RC r_mult_B_reg_24_:CK 0.000e+00
*RC r_mult_B_reg_23_:CK 0.000e+00
*RC r_mult_B_reg_22_:CK 0.000e+00
*RC r_mult_B_reg_21_:CK 0.000e+00
*RC r_mult_B_reg_20_:CK 0.000e+00
*RC r_mult_B_reg_19_:CK 0.000e+00
*RC r_mult_B_reg_18_:CK 0.000e+00
*RC r_mult_B_reg_17_:CK 0.000e+00
*RC r_mult_B_reg_16_:CK 0.000e+00
*RC r_mult_B_reg_15_:CK 0.000e+00
*RC r_mult_B_reg_14_:CK 0.000e+00
*RC r_mult_B_reg_13_:CK 0.000e+00
*RC r_mult_B_reg_12_:CK 0.000e+00
*RC r_mult_B_reg_11_:CK 0.000e+00
*RC r_mult_B_reg_10_:CK 0.000e+00
*RC r_mult_B_reg_9_:CK 0.000e+00
*RC r_mult_B_reg_8_:CK 0.000e+00
*RC r_mult_B_reg_7_:CK 0.000e+00
*RC r_mult_B_reg_6_:CK 0.000e+00
*RC r_mult_B_reg_5_:CK 0.000e+00
*RC r_mult_B_reg_4_:CK 0.000e+00
*RC r_mult_B_reg_3_:CK 0.000e+00
*RC r_mult_B_reg_2_:CK 0.000e+00
*RC r_mult_B_reg_1_:CK 0.000e+00
*RC r_mult_B_reg_0_:CK 0.000e+00
*RC r_mult_B_reg_31_:CK 0.000e+00
*RC r_mult_AB_STB_reg:CK 0.000e+00
*RC r_mult_A_reg_31_:CK 0.000e+00
*RC r_mult_A_reg_30_:CK 0.000e+00
*RC r_mult_A_reg_23_:CK 0.000e+00
*RC r_mult_A_reg_20_:CK 0.000e+00
*RC r_mult_A_reg_19_:CK 0.000e+00
*RC r_mult_A_reg_18_:CK 0.000e+00
*RC r_mult_A_reg_15_:CK 0.000e+00
*RC r_mult_A_reg_12_:CK 0.000e+00
*RC r_mult_A_reg_10_:CK 0.000e+00
*RC r_mult_A_reg_4_:CK 0.000e+00
*RC r_mult_A_reg_3_:CK 0.000e+00
*RC r_mult_A_reg_2_:CK 0.000e+00
*RC mult:i_CLK 0.000e+00
*RC add/o_AB_ACK_reg:CK 0.000e+00
*RC add/a_m_reg_8_:CK 0.000e+00
*RC add/o_Z_reg_31_:CK 0.000e+00
*RC add/o_Z_reg_30_:CK 0.000e+00
*RC add/o_Z_reg_29_:CK 0.000e+00
*RC add/o_Z_reg_28_:CK 0.000e+00
*RC add/o_Z_reg_27_:CK 0.000e+00
*RC add/o_Z_reg_26_:CK 0.000e+00
*RC add/o_Z_reg_25_:CK 0.000e+00
*RC add/o_Z_reg_24_:CK 0.000e+00
*RC add/o_Z_reg_23_:CK 0.000e+00
*RC add/o_Z_reg_22_:CK 0.000e+00
*RC add/o_Z_reg_21_:CK 0.000e+00
*RC add/o_Z_reg_20_:CK 0.000e+00
*RC add/o_Z_reg_19_:CK 0.000e+00
*RC add/o_Z_reg_18_:CK 0.000e+00
*RC add/o_Z_reg_17_:CK 0.000e+00
*RC add/o_Z_reg_16_:CK 0.000e+00
*RC add/o_Z_reg_15_:CK 0.000e+00
*RC add/o_Z_reg_14_:CK 0.000e+00
*RC add/o_Z_reg_13_:CK 0.000e+00
*RC add/o_Z_reg_12_:CK 0.000e+00
*RC add/o_Z_reg_11_:CK 0.000e+00
*RC add/o_Z_reg_10_:CK 0.000e+00
*RC add/o_Z_reg_9_:CK 0.000e+00
*RC add/o_Z_reg_8_:CK 0.000e+00
*RC add/o_Z_reg_7_:CK 0.000e+00
*RC add/o_Z_reg_6_:CK 0.000e+00
*RC add/o_Z_reg_5_:CK 0.000e+00
*RC add/o_Z_reg_4_:CK 0.000e+00
*RC add/o_Z_reg_3_:CK 0.000e+00
*RC add/o_Z_reg_2_:CK 0.000e+00
*RC add/o_Z_reg_1_:CK 0.000e+00
*RC add/o_Z_reg_0_:CK 0.000e+00
*RC add/b_reg_31_:CK 0.000e+00
*RC add/b_reg_30_:CK 0.000e+00
*RC add/b_reg_29_:CK 0.000e+00
*RC add/b_reg_28_:CK 0.000e+00
*RC add/b_reg_27_:CK 0.000e+00
*RC add/b_reg_26_:CK 0.000e+00
*RC add/b_reg_25_:CK 0.000e+00
*RC add/b_reg_24_:CK 0.000e+00
*RC add/b_reg_23_:CK 0.000e+00
*RC add/b_reg_22_:CK 0.000e+00
*RC add/b_reg_21_:CK 0.000e+00
*RC add/b_reg_20_:CK 0.000e+00
*RC add/b_reg_19_:CK 0.000e+00
*RC add/b_reg_18_:CK 0.000e+00
*RC add/b_reg_17_:CK 0.000e+00
*RC add/b_reg_16_:CK 0.000e+00
*RC add/b_reg_15_:CK 0.000e+00
*RC add/b_reg_14_:CK 0.000e+00
*RC add/b_reg_13_:CK 0.000e+00
*RC add/b_reg_12_:CK 0.000e+00
*RC add/b_reg_11_:CK 0.000e+00
*RC add/b_reg_10_:CK 0.000e+00
*RC add/b_reg_9_:CK 0.000e+00
*RC add/b_reg_8_:CK 0.000e+00
*RC add/b_reg_7_:CK 0.000e+00
*RC add/b_reg_6_:CK 0.000e+00
*RC add/b_reg_5_:CK 0.000e+00
*RC add/b_reg_4_:CK 0.000e+00
*RC add/b_reg_3_:CK 0.000e+00
*RC add/b_reg_2_:CK 0.000e+00
*RC add/b_reg_1_:CK 0.000e+00
*RC add/o_Z_STB_reg:CK 0.000e+00
*RC add/sticky_reg:CK 0.000e+00
*RC add/round_bit_reg:CK 0.000e+00
*RC add/z_reg_31_:CK 0.000e+00
*RC add/z_reg_20_:CK 0.000e+00
*RC add/z_reg_10_:CK 0.000e+00
*RC add/z_reg_7_:CK 0.000e+00
*RC add/z_reg_29_:CK 0.000e+00
*RC add/z_reg_27_:CK 0.000e+00
*RC add/z_reg_25_:CK 0.000e+00
*RC add/b_e_reg_0_:CK 0.000e+00
*RC add/z_reg_21_:CK 0.000e+00
*RC add/z_reg_19_:CK 0.000e+00
*RC add/z_reg_18_:CK 0.000e+00
*RC add/z_reg_17_:CK 0.000e+00
*RC add/z_reg_16_:CK 0.000e+00
*RC add/z_reg_15_:CK 0.000e+00
*RC add/z_reg_14_:CK 0.000e+00
*RC add/z_reg_13_:CK 0.000e+00
*RC add/z_reg_12_:CK 0.000e+00
*RC add/z_reg_11_:CK 0.000e+00
*RC add/z_reg_9_:CK 0.000e+00
*RC add/z_reg_8_:CK 0.000e+00
*RC add/z_reg_6_:CK 0.000e+00
*RC add/z_reg_5_:CK 0.000e+00
*RC add/z_reg_4_:CK 0.000e+00
*RC add/z_reg_3_:CK 0.000e+00
*RC add/z_reg_2_:CK 0.000e+00
*RC add/z_reg_1_:CK 0.000e+00
*RC add/z_reg_0_:CK 0.000e+00
*RC add/z_reg_30_:CK 0.000e+00
*RC add/a_m_reg_2_:CK 0.000e+00
*RC add/a_m_reg_1_:CK 0.000e+00
*RC add/a_m_reg_0_:CK 0.000e+00
*RC add/a_m_reg_25_:CK 0.000e+00
*RC add/a_m_reg_24_:CK 0.000e+00
*RC add/a_m_reg_23_:CK 0.000e+00
*RC add/a_m_reg_22_:CK 0.000e+00
*RC add/a_m_reg_21_:CK 0.000e+00
*RC add/a_m_reg_20_:CK 0.000e+00
*RC add/a_m_reg_19_:CK 0.000e+00
*RC add/a_m_reg_18_:CK 0.000e+00
*RC add/a_m_reg_17_:CK 0.000e+00
*RC add/a_m_reg_16_:CK 0.000e+00
*RC add/a_m_reg_15_:CK 0.000e+00
*RC add/a_m_reg_14_:CK 0.000e+00
*RC add/a_m_reg_13_:CK 0.000e+00
*RC add/a_m_reg_12_:CK 0.000e+00
*RC add/a_m_reg_11_:CK 0.000e+00
*RC add/a_m_reg_10_:CK 0.000e+00
*RC add/a_m_reg_9_:CK 0.000e+00
*RC add/a_m_reg_7_:CK 0.000e+00
*RC add/a_m_reg_6_:CK 0.000e+00
*RC add/a_m_reg_5_:CK 0.000e+00
*RC add/a_m_reg_4_:CK 0.000e+00
*RC add/a_m_reg_3_:CK 0.000e+00
*RC add/state_reg_2_:CK 0.000e+00
*RC add/b_e_reg_3_:CK 0.000e+00
*RC add/b_m_reg_2_:CK 0.000e+00
*RC add/b_m_reg_1_:CK 0.000e+00
*RC add/b_m_reg_0_:CK 0.000e+00
*RC add/state_reg_3_:CK 0.000e+00
*RC add/state_reg_1_:CK 0.000e+00
*RC add/a_e_reg_7_:CK 0.000e+00
*RC add/a_reg_0_:CK 0.000e+00
*RC add/guard_reg:CK 0.000e+00
*RC add/z_e_reg_0_:CK 0.000e+00
*RC add/b_m_reg_5_:CK 0.000e+00
*RC add/b_m_reg_9_:CK 0.000e+00
*RC add/b_m_reg_4_:CK 0.000e+00
*RC add/b_m_reg_6_:CK 0.000e+00
*RC add/b_m_reg_3_:CK 0.000e+00
*RC add/b_m_reg_20_:CK 0.000e+00
*RC add/b_m_reg_22_:CK 0.000e+00
*RC add/b_m_reg_7_:CK 0.000e+00
*RC add/b_m_reg_12_:CK 0.000e+00
*RC add/b_m_reg_23_:CK 0.000e+00
*RC add/b_m_reg_11_:CK 0.000e+00
*RC add/b_m_reg_8_:CK 0.000e+00
*RC add/b_m_reg_14_:CK 0.000e+00
*RC add/b_m_reg_17_:CK 0.000e+00
*RC add/b_m_reg_19_:CK 0.000e+00
*RC add/b_m_reg_25_:CK 0.000e+00
*RC add/b_m_reg_18_:CK 0.000e+00
*RC add/b_m_reg_10_:CK 0.000e+00
*RC add/b_m_reg_13_:CK 0.000e+00
*RC add/b_m_reg_16_:CK 0.000e+00
*RC add/b_m_reg_15_:CK 0.000e+00
*RC add/b_m_reg_26_:CK 0.000e+00
*RC add/b_m_reg_21_:CK 0.000e+00
*RC add/b_m_reg_24_:CK 0.000e+00
*RC add/a_m_reg_26_:CK 0.000e+00
*RC add/a_s_reg:CK 0.000e+00
*RC add/b_s_reg:CK 0.000e+00
*RC add/b_e_reg_7_:CK 0.000e+00
*RC add/a_e_reg_0_:CK 0.000e+00
*RC add/state_reg_0_:CK 0.000e+00
*RC add/b_e_reg_1_:CK 0.000e+00
*RC add/b_e_reg_5_:CK 0.000e+00
*RC add/a_e_reg_3_:CK 0.000e+00
*RC add/a_e_reg_1_:CK 0.000e+00
*RC add/a_e_reg_5_:CK 0.000e+00
*RC add/a_e_reg_8_:CK 0.000e+00