*SPEF "IEEE 1481-1999"
*DESIGN "mpr121_controller"
*DATE "Wed Jun 17 12:48:39 2020"
*VENDOR "SYNOPSYS INC"
*PROGRAM "Synopsys Design Compiler cmos"
*VERSION "F-2011.09-SP5-3"
*DESIGN_FLOW "SYNTHESIS"
*DIVIDER /
*DELIMITER :
*BUS_DELIMITER []
*T_UNIT 1.0 NS
*C_UNIT 1.0 PF
*R_UNIT 1.0 KOHM
*L_UNIT 1.0 HENRY

*PORTS

o_MPR121_DATA_OUT\[7\] O *L 1.035e-02 *S 1.574e-01 1.974e-01 
o_MPR121_DATA_OUT\[6\] O *L 1.035e-02 *S 1.574e-01 1.974e-01 
o_MPR121_DATA_OUT\[5\] O *L 1.035e-02 *S 1.574e-01 1.974e-01 
o_MPR121_DATA_OUT\[4\] O *L 1.035e-02 *S 1.574e-01 1.974e-01 
o_MPR121_DATA_OUT\[3\] O *L 1.035e-02 *S 1.574e-01 1.974e-01 
o_MPR121_DATA_OUT\[2\] O *L 1.035e-02 *S 1.574e-01 1.974e-01 
o_MPR121_DATA_OUT\[1\] O *L 1.035e-02 *S 1.574e-01 1.974e-01 
o_MPR121_DATA_OUT\[0\] O *L 1.035e-02 *S 1.574e-01 1.974e-01 
o_MPR121_REG_ADDR\[7\] I *L 0.000e+00 *S 0.000e+00 0.000e+00 
o_MPR121_REG_ADDR\[6\] I *L 0.000e+00 *S 0.000e+00 0.000e+00 
o_MPR121_REG_ADDR\[5\] I *L 0.000e+00 *S 0.000e+00 0.000e+00 
o_MPR121_REG_ADDR\[4\] I *L 0.000e+00 *S 0.000e+00 0.000e+00 
o_MPR121_REG_ADDR\[3\] I *L 0.000e+00 *S 0.000e+00 0.000e+00 
o_MPR121_REG_ADDR\[2\] I *L 0.000e+00 *S 0.000e+00 0.000e+00 
o_MPR121_REG_ADDR\[1\] I *L 0.000e+00 *S 0.000e+00 0.000e+00 
o_MPR121_REG_ADDR\[0\] I *L 0.000e+00 *S 0.000e+00 0.000e+00 
i_MPR121_DATA_IN\[7\] I *L 0.000e+00 *S 0.000e+00 0.000e+00 
i_MPR121_DATA_IN\[6\] I *L 0.000e+00 *S 0.000e+00 0.000e+00 
i_MPR121_DATA_IN\[5\] I *L 0.000e+00 *S 0.000e+00 0.000e+00 
i_MPR121_DATA_IN\[4\] I *L 0.000e+00 *S 0.000e+00 0.000e+00 
i_MPR121_DATA_IN\[3\] I *L 0.000e+00 *S 0.000e+00 0.000e+00 
i_MPR121_DATA_IN\[2\] I *L 0.000e+00 *S 0.000e+00 0.000e+00 
i_MPR121_DATA_IN\[1\] I *L 0.000e+00 *S 0.000e+00 0.000e+00 
i_MPR121_DATA_IN\[0\] I *L 0.000e+00 *S 0.000e+00 0.000e+00 
i_MPR121_WRITE_ENABLE I *L 0.000e+00 *S 0.000e+00 0.000e+00 
i_MPR121_READ_ENABLE I *L 0.000e+00 *S 0.000e+00 0.000e+00 
o_MPR121_INIT_SET O *L 1.035e-02 *S 1.574e-01 1.974e-01 
o_MPR121_BUSY O *L 1.035e-02 *S 1.652e-01 2.053e-01 
o_MPR121_FAIL O *L 1.035e-02 *S 1.347e-01 1.012e-01 
i_I2C_SCL_IN I *L 0.000e+00 *S 0.000e+00 0.000e+00 
i_I2C_SDA_IN I *L 0.000e+00 *S 0.000e+00 0.000e+00 
o_I2C_SCL_OUT O *L 1.035e-02 *S 2.561e-01 1.813e-01 
o_I2C_SDA_OUT O *L 1.035e-02 *S 1.666e-01 1.234e-01 
o_I2C_SCL_EN O *L 1.035e-02 *S 1.130e-01 7.848e-02 
o_I2C_SDA_EN O *L 1.035e-02 *S 2.105e-01 1.695e-01 
i_CLK I *L 0.000e+00 *S 0.000e+00 0.000e+00 
i_RSTN I *L 0.000e+00 *S 0.000e+00 0.000e+00 

*R_NET o_MPR121_DATA_OUT\[7\] 1.740e-02
*DRIVER o_MPR121_DATA_OUT_reg_7_:Q
*CELL fd2qd1_hd
*C2_R1_C1 8.700e-03 9.100e-03 8.700e-03 
*LOADS
*RC U166:C 1.583e-04
*RC o_MPR121_DATA_OUT\[7\] 1.583e-04
*END

*R_NET o_MPR121_DATA_OUT\[6\] 1.740e-02
*DRIVER o_MPR121_DATA_OUT_reg_6_:Q
*CELL fd2qd1_hd
*C2_R1_C1 8.700e-03 9.100e-03 8.700e-03 
*LOADS
*RC U165:C 1.583e-04
*RC o_MPR121_DATA_OUT\[6\] 1.583e-04
*END

*R_NET o_MPR121_DATA_OUT\[5\] 1.740e-02
*DRIVER o_MPR121_DATA_OUT_reg_5_:Q
*CELL fd2qd1_hd
*C2_R1_C1 8.700e-03 9.100e-03 8.700e-03 
*LOADS
*RC U164:C 1.583e-04
*RC o_MPR121_DATA_OUT\[5\] 1.583e-04
*END

*R_NET o_MPR121_DATA_OUT\[4\] 1.740e-02
*DRIVER o_MPR121_DATA_OUT_reg_4_:Q
*CELL fd2qd1_hd
*C2_R1_C1 8.700e-03 9.100e-03 8.700e-03 
*LOADS
*RC U163:C 1.583e-04
*RC o_MPR121_DATA_OUT\[4\] 1.583e-04
*END

*R_NET o_MPR121_DATA_OUT\[3\] 1.740e-02
*DRIVER o_MPR121_DATA_OUT_reg_3_:Q
*CELL fd2qd1_hd
*C2_R1_C1 8.700e-03 9.100e-03 8.700e-03 
*LOADS
*RC U162:C 1.583e-04
*RC o_MPR121_DATA_OUT\[3\] 1.583e-04
*END

*R_NET o_MPR121_DATA_OUT\[2\] 1.740e-02
*DRIVER o_MPR121_DATA_OUT_reg_2_:Q
*CELL fd2qd1_hd
*C2_R1_C1 8.700e-03 9.100e-03 8.700e-03 
*LOADS
*RC U161:C 1.583e-04
*RC o_MPR121_DATA_OUT\[2\] 1.583e-04
*END

*R_NET o_MPR121_DATA_OUT\[1\] 1.740e-02
*DRIVER o_MPR121_DATA_OUT_reg_1_:Q
*CELL fd2qd1_hd
*C2_R1_C1 8.700e-03 9.100e-03 8.700e-03 
*LOADS
*RC U160:C 1.583e-04
*RC o_MPR121_DATA_OUT\[1\] 1.583e-04
*END

*R_NET o_MPR121_DATA_OUT\[0\] 1.740e-02
*DRIVER o_MPR121_DATA_OUT_reg_0_:Q
*CELL fd2qd1_hd
*C2_R1_C1 8.700e-03 9.100e-03 8.700e-03 
*LOADS
*RC U159:C 1.583e-04
*RC o_MPR121_DATA_OUT\[0\] 1.583e-04
*END

*R_NET o_MPR121_REG_ADDR\[7\] 4.730e-03
*DRIVER o_MPR121_REG_ADDR\[7\]
*CELL NULL
*C2_R1_C1 2.365e-03 7.370e-03 2.365e-03 
*LOADS
*RC U276:B 3.486e-05
*END

*R_NET o_MPR121_REG_ADDR\[6\] 4.920e-03
*DRIVER o_MPR121_REG_ADDR\[6\]
*CELL NULL
*C2_R1_C1 2.460e-03 7.370e-03 2.460e-03 
*LOADS
*RC U281:AN 3.626e-05
*END

*R_NET o_MPR121_REG_ADDR\[5\] 4.920e-03
*DRIVER o_MPR121_REG_ADDR\[5\]
*CELL NULL
*C2_R1_C1 2.460e-03 7.370e-03 2.460e-03 
*LOADS
*RC U282:AN 3.626e-05
*END

*R_NET o_MPR121_REG_ADDR\[4\] 4.920e-03
*DRIVER o_MPR121_REG_ADDR\[4\]
*CELL NULL
*C2_R1_C1 2.460e-03 7.370e-03 2.460e-03 
*LOADS
*RC U283:AN 3.626e-05
*END

*R_NET o_MPR121_REG_ADDR\[3\] 4.920e-03
*DRIVER o_MPR121_REG_ADDR\[3\]
*CELL NULL
*C2_R1_C1 2.460e-03 7.370e-03 2.460e-03 
*LOADS
*RC U284:AN 3.626e-05
*END

*R_NET o_MPR121_REG_ADDR\[2\] 4.920e-03
*DRIVER o_MPR121_REG_ADDR\[2\]
*CELL NULL
*C2_R1_C1 2.460e-03 7.370e-03 2.460e-03 
*LOADS
*RC U285:AN 3.626e-05
*END

*R_NET o_MPR121_REG_ADDR\[1\] 4.920e-03
*DRIVER o_MPR121_REG_ADDR\[1\]
*CELL NULL
*C2_R1_C1 2.460e-03 7.370e-03 2.460e-03 
*LOADS
*RC U286:AN 3.626e-05
*END

*R_NET o_MPR121_REG_ADDR\[0\] 4.590e-03
*DRIVER o_MPR121_REG_ADDR\[0\]
*CELL NULL
*C2_R1_C1 2.295e-03 7.370e-03 2.295e-03 
*LOADS
*RC U288:A 3.383e-05
*END

*R_NET i_MPR121_DATA_IN\[7\] 4.920e-03
*DRIVER i_MPR121_DATA_IN\[7\]
*CELL NULL
*C2_R1_C1 2.460e-03 7.370e-03 2.460e-03 
*LOADS
*RC U268:AN 3.626e-05
*END

*R_NET i_MPR121_DATA_IN\[6\] 4.730e-03
*DRIVER i_MPR121_DATA_IN\[6\]
*CELL NULL
*C2_R1_C1 2.365e-03 7.370e-03 2.365e-03 
*LOADS
*RC U269:B 3.486e-05
*END

*R_NET i_MPR121_DATA_IN\[5\] 4.730e-03
*DRIVER i_MPR121_DATA_IN\[5\]
*CELL NULL
*C2_R1_C1 2.365e-03 7.370e-03 2.365e-03 
*LOADS
*RC U270:B 3.486e-05
*END

*R_NET i_MPR121_DATA_IN\[4\] 4.920e-03
*DRIVER i_MPR121_DATA_IN\[4\]
*CELL NULL
*C2_R1_C1 2.460e-03 7.370e-03 2.460e-03 
*LOADS
*RC U271:AN 3.626e-05
*END

*R_NET i_MPR121_DATA_IN\[3\] 4.920e-03
*DRIVER i_MPR121_DATA_IN\[3\]
*CELL NULL
*C2_R1_C1 2.460e-03 7.370e-03 2.460e-03 
*LOADS
*RC U272:AN 3.626e-05
*END

*R_NET i_MPR121_DATA_IN\[2\] 4.920e-03
*DRIVER i_MPR121_DATA_IN\[2\]
*CELL NULL
*C2_R1_C1 2.460e-03 7.370e-03 2.460e-03 
*LOADS
*RC U273:AN 3.626e-05
*END

*R_NET i_MPR121_DATA_IN\[1\] 4.730e-03
*DRIVER i_MPR121_DATA_IN\[1\]
*CELL NULL
*C2_R1_C1 2.365e-03 7.370e-03 2.365e-03 
*LOADS
*RC U274:B 3.486e-05
*END

*R_NET i_MPR121_DATA_IN\[0\] 4.730e-03
*DRIVER i_MPR121_DATA_IN\[0\]
*CELL NULL
*C2_R1_C1 2.365e-03 7.370e-03 2.365e-03 
*LOADS
*RC U275:B 3.486e-05
*END

*R_NET i_MPR121_WRITE_ENABLE 2.126e-02
*DRIVER i_MPR121_WRITE_ENABLE
*CELL NULL
*C2_R1_C1 1.063e-02 1.094e-02 1.063e-02 
*LOADS
*RC U149:A 2.326e-04
*RC U221:A 2.326e-04
*RC U222:B 2.326e-04
*RC U243:A 2.326e-04
*END

*R_NET i_MPR121_READ_ENABLE 2.199e-02
*DRIVER i_MPR121_READ_ENABLE
*CELL NULL
*C2_R1_C1 1.099e-02 1.094e-02 1.099e-02 
*LOADS
*RC U158:B 2.406e-04
*RC U229:C 2.406e-04
*RC U243:B 2.406e-04
*RC U267:A 2.406e-04
*END

*R_NET o_MPR121_INIT_SET 1.740e-02
*DRIVER o_MPR121_INIT_SET_reg:Q
*CELL fd2qd1_hd
*C2_R1_C1 8.700e-03 9.100e-03 8.700e-03 
*LOADS
*RC U169:C 1.583e-04
*RC o_MPR121_INIT_SET 1.583e-04
*END

*R_NET o_MPR121_BUSY 1.833e-02
*DRIVER o_MPR121_BUSY_reg:Q
*CELL fd2qd1_hd
*C2_R1_C1 9.165e-03 9.100e-03 9.165e-03 
*LOADS
*RC U196:D 1.668e-04
*RC o_MPR121_BUSY 1.668e-04
*END

*R_NET o_MPR121_FAIL 1.350e-02
*DRIVER i2c_master/missed_ack_reg_reg:Q
*CELL fd3d1_hd
*C2_R1_C1 6.750e-03 7.370e-03 6.750e-03 
*LOADS
*RC o_MPR121_FAIL 9.950e-05
*END

*R_NET i_I2C_SCL_IN 4.610e-03
*DRIVER i_I2C_SCL_IN
*CELL NULL
*C2_R1_C1 2.305e-03 7.370e-03 2.305e-03 
*LOADS
*RC i2c_master/scl_i_reg_reg:D 3.398e-05
*END

*R_NET i_I2C_SDA_IN 4.610e-03
*DRIVER i_I2C_SDA_IN
*CELL NULL
*C2_R1_C1 2.305e-03 7.370e-03 2.305e-03 
*LOADS
*RC i2c_master/sda_i_reg_reg:D 3.398e-05
*END

*R_NET o_I2C_SCL_OUT 2.835e-02
*DRIVER i2c_master/scl_o_reg_reg:Q
*CELL fd3d1_hd
*C2_R1_C1 1.417e-02 1.094e-02 1.417e-02 
*LOADS
*RC i2c_master/U914:A 3.101e-04
*RC i2c_master/U635:A 3.101e-04
*RC i2c_master/U88:C 3.101e-04
*RC o_I2C_SCL_OUT 3.101e-04
*END

*R_NET o_I2C_SDA_OUT 1.731e-02
*DRIVER i2c_master/sda_o_reg_reg:Q
*CELL fd3d1_hd
*C2_R1_C1 8.655e-03 9.100e-03 8.655e-03 
*LOADS
*RC i2c_master/U684:A 1.575e-04
*RC o_I2C_SDA_OUT 1.575e-04
*END

*R_NET o_I2C_SCL_EN 1.350e-02
*DRIVER i2c_master/U914:Y
*CELL nid1_hd
*C2_R1_C1 6.750e-03 7.370e-03 6.750e-03 
*LOADS
*RC o_I2C_SCL_EN 9.950e-05
*END

*R_NET o_I2C_SDA_EN 2.396e-02
*DRIVER i2c_master/sda_o_reg_reg:QN
*CELL fd3d1_hd
*C2_R1_C1 1.198e-02 9.460e-03 1.198e-02 
*LOADS
*RC i2c_master/U74:A 2.267e-04
*RC i2c_master/U71:A 2.267e-04
*RC o_I2C_SDA_EN 2.267e-04
*END

*R_NET i_CLK 2.890e-01
*DRIVER i_CLK
*CELL NULL
*C2_R1_C1 1.445e-01 0.000e+00 1.445e-01 
*LOADS
*RC i2c_master/async_rstn_synchronizer/r_ff_reg:CK 0.000e+00
*RC i2c_master/async_rstn_synchronizer/o_RSTN_reg:CK 0.000e+00
*RC i2c_master/last_reg_reg:CK 0.000e+00
*RC i2c_master/bus_active_reg_reg:CK 0.000e+00
*RC i2c_master/scl_i_reg_reg:CK 0.000e+00
*RC i2c_master/bit_count_reg_reg_2_:CK 0.000e+00
*RC i2c_master/bit_count_reg_reg_1_:CK 0.000e+00
*RC i2c_master/delay_reg_reg_0_:CK 0.000e+00
*RC i2c_master/delay_reg_reg_16_:CK 0.000e+00
*RC i2c_master/delay_reg_reg_8_:CK 0.000e+00
*RC i2c_master/delay_reg_reg_9_:CK 0.000e+00
*RC i2c_master/delay_reg_reg_10_:CK 0.000e+00
*RC i2c_master/delay_reg_reg_11_:CK 0.000e+00
*RC i2c_master/delay_reg_reg_12_:CK 0.000e+00
*RC i2c_master/delay_reg_reg_13_:CK 0.000e+00
*RC i2c_master/delay_reg_reg_14_:CK 0.000e+00
*RC i2c_master/delay_reg_reg_15_:CK 0.000e+00
*RC i2c_master/delay_reg_reg_2_:CK 0.000e+00
*RC i2c_master/delay_reg_reg_3_:CK 0.000e+00
*RC i2c_master/delay_reg_reg_4_:CK 0.000e+00
*RC i2c_master/delay_reg_reg_5_:CK 0.000e+00
*RC i2c_master/delay_reg_reg_6_:CK 0.000e+00
*RC i2c_master/delay_reg_reg_7_:CK 0.000e+00
*RC i2c_master/delay_reg_reg_1_:CK 0.000e+00
*RC i2c_master/phy_state_reg_reg_2_:CK 0.000e+00
*RC i2c_master/sda_o_reg_reg:CK 0.000e+00
*RC i2c_master/phy_state_reg_reg_0_:CK 0.000e+00
*RC i2c_master/phy_state_reg_reg_3_:CK 0.000e+00
*RC i2c_master/phy_state_reg_reg_1_:CK 0.000e+00
*RC i2c_master/state_reg_reg_2_:CK 0.000e+00
*RC i2c_master/state_reg_reg_1_:CK 0.000e+00
*RC i2c_master/state_reg_reg_3_:CK 0.000e+00
*RC i2c_master/data_in_ready_reg_reg:CK 0.000e+00
*RC i2c_master/state_reg_reg_0_:CK 0.000e+00
*RC i2c_master/cmd_ready_reg_reg:CK 0.000e+00
*RC i2c_master/data_out_valid_reg_reg:CK 0.000e+00
*RC i2c_master/sda_i_reg_reg:CK 0.000e+00
*RC i2c_master/delay_scl_reg_reg:CK 0.000e+00
*RC i2c_master/scl_o_reg_reg:CK 0.000e+00
*RC i2c_master/bus_control_reg_reg:CK 0.000e+00
*RC i2c_master/missed_ack_reg_reg:CK 0.000e+00
*RC i2c_master/last_sda_i_reg_reg:CK 0.000e+00
*RC i2c_master/data_reg_reg_1_:CK 0.000e+00
*RC i2c_master/data_reg_reg_3_:CK 0.000e+00
*RC i2c_master/data_reg_reg_5_:CK 0.000e+00
*RC i2c_master/data_reg_reg_7_:CK 0.000e+00
*RC i2c_master/data_reg_reg_0_:CK 0.000e+00
*RC i2c_master/data_reg_reg_2_:CK 0.000e+00
*RC i2c_master/data_reg_reg_4_:CK 0.000e+00
*RC i2c_master/data_reg_reg_6_:CK 0.000e+00
*RC i2c_master/mode_read_reg_reg:CK 0.000e+00
*RC i2c_master/mode_stop_reg_reg:CK 0.000e+00
*RC i2c_master/mode_write_multiple_reg_reg:CK 0.000e+00
*RC i2c_master/bit_count_reg_reg_3_:CK 0.000e+00
*RC i2c_master/bit_count_reg_reg_0_:CK 0.000e+00
*RC i2c_master/addr_reg_reg_1_:CK 0.000e+00
*RC i2c_master/addr_reg_reg_3_:CK 0.000e+00
*RC i2c_master/addr_reg_reg_4_:CK 0.000e+00
*RC i2c_master/addr_reg_reg_6_:CK 0.000e+00
*RC i2c_master/addr_reg_reg_0_:CK 0.000e+00
*RC i2c_master/addr_reg_reg_2_:CK 0.000e+00
*RC i2c_master/addr_reg_reg_5_:CK 0.000e+00
*RC i2c_master/data_out_last_reg_reg:CK 0.000e+00
*RC i2c_master/data_out_reg_reg_1_:CK 0.000e+00
*RC i2c_master/data_out_reg_reg_2_:CK 0.000e+00
*RC i2c_master/data_out_reg_reg_3_:CK 0.000e+00
*RC i2c_master/data_out_reg_reg_4_:CK 0.000e+00
*RC i2c_master/data_out_reg_reg_5_:CK 0.000e+00
*RC i2c_master/data_out_reg_reg_6_:CK 0.000e+00
*RC i2c_master/data_out_reg_reg_7_:CK 0.000e+00
*RC i2c_master/phy_rx_data_reg_reg:CK 0.000e+00
*RC i2c_master/data_out_reg_reg_0_:CK 0.000e+00
*RC i2c_master/delay_sda_reg_reg:CK 0.000e+00
*RC i2c_master/busy_reg_reg:CK 0.000e+00
*RC i2c_master/phy_state_reg_reg_4_:CK 0.000e+00
*RC i2c_master/state_reg_reg_4_:CK 0.000e+00
*RC r_pstate_reg_4_:CK 0.000e+00
*RC r_pstate_reg_1_:CK 0.000e+00
*RC o_MPR121_BUSY_reg:CK 0.000e+00
*RC r_pstate_reg_3_:CK 0.000e+00
*RC r_pstate_reg_2_:CK 0.000e+00
*RC r_pstate_reg_5_:CK 0.000e+00
*RC r_pstate_reg_0_:CK 0.000e+00
*RC r_i2c_data_in_reg_1_:CK 0.000e+00
*RC r_i2c_data_in_reg_2_:CK 0.000e+00
*RC r_i2c_data_in_reg_3_:CK 0.000e+00
*RC r_i2c_data_in_reg_4_:CK 0.000e+00
*RC r_i2c_data_in_reg_5_:CK 0.000e+00
*RC r_i2c_data_in_reg_6_:CK 0.000e+00
*RC r_i2c_data_in_reg_7_:CK 0.000e+00
*RC r_i2c_data_in_reg_0_:CK 0.000e+00
*RC r_i2c_data_out_ready_reg:CK 0.000e+00
*RC r_i2c_stop_reg:CK 0.000e+00
*RC o_MPR121_DATA_OUT_reg_0_:CK 0.000e+00
*RC o_MPR121_DATA_OUT_reg_1_:CK 0.000e+00
*RC o_MPR121_DATA_OUT_reg_2_:CK 0.000e+00
*RC o_MPR121_DATA_OUT_reg_3_:CK 0.000e+00
*RC o_MPR121_DATA_OUT_reg_4_:CK 0.000e+00
*RC o_MPR121_DATA_OUT_reg_5_:CK 0.000e+00
*RC o_MPR121_DATA_OUT_reg_6_:CK 0.000e+00
*RC o_MPR121_DATA_OUT_reg_7_:CK 0.000e+00
*RC r_clk_counter_reg_9_:CK 0.000e+00
*RC r_lstate_reg_1_:CK 0.000e+00
*RC r_clk_counter_reg_0_:CK 0.000e+00
*RC r_clk_counter_reg_1_:CK 0.000e+00
*RC r_clk_counter_reg_2_:CK 0.000e+00
*RC r_clk_counter_reg_3_:CK 0.000e+00
*RC r_clk_counter_reg_4_:CK 0.000e+00
*RC r_clk_counter_reg_5_:CK 0.000e+00
*RC r_clk_counter_reg_6_:CK 0.000e+00
*RC r_clk_counter_reg_7_:CK 0.000e+00
*RC r_clk_counter_reg_8_:CK 0.000e+00
*RC r_i2c_data_in_valid_reg:CK 0.000e+00
*RC r_i2c_cmd_valid_reg:CK 0.000e+00
*RC r_i2c_data_in_last_reg:CK 0.000e+00
*RC o_MPR121_INIT_SET_reg:CK 0.000e+00
*RC r_i2c_read_reg:CK 0.000e+00
*RC r_i2c_start_reg:CK 0.000e+00
*RC r_i2c_write_multiple_reg:CK 0.000e+00
*RC r_i2c_write_reg:CK 0.000e+00
*RC r_i2c_reg_addr_reg_7_:CK 0.000e+00
*RC r_i2c_reg_data_in_reg_0_:CK 0.000e+00
*RC r_i2c_reg_data_in_reg_1_:CK 0.000e+00
*RC r_i2c_reg_data_in_reg_5_:CK 0.000e+00
*RC r_i2c_reg_data_in_reg_6_:CK 0.000e+00
*RC r_i2c_reg_addr_reg_1_:CK 0.000e+00
*RC r_i2c_reg_addr_reg_2_:CK 0.000e+00
*RC r_i2c_reg_addr_reg_3_:CK 0.000e+00
*RC r_i2c_reg_addr_reg_4_:CK 0.000e+00
*RC r_i2c_reg_addr_reg_5_:CK 0.000e+00
*RC r_i2c_reg_addr_reg_6_:CK 0.000e+00
*RC r_i2c_reg_data_in_reg_2_:CK 0.000e+00
*RC r_i2c_reg_data_in_reg_3_:CK 0.000e+00
*RC r_i2c_reg_data_in_reg_4_:CK 0.000e+00
*RC r_i2c_reg_data_in_reg_7_:CK 0.000e+00
*RC r_i2c_reg_addr_reg_0_:CK 0.000e+00
*RC r_lstate_reg_0_:CK 0.000e+00
*RC async_rstn_synchronizer/r_ff_reg:CK 0.000e+00
*RC async_rstn_synchronizer/o_RSTN_reg:CK 0.000e+00
*END

*R_NET w_rstn 7.829e-02
*DRIVER async_rstn_synchronizer/o_RSTN_reg:Q
*CELL fd2qd1_hd
*C2_R1_C1 3.914e-02 2.520e-02 3.914e-02 
*LOADS
*RC U171:AN 1.973e-03
*RC U172:A 1.973e-03
*RC r_pstate_reg_4_:RN 1.973e-03
*RC r_pstate_reg_1_:RN 1.973e-03
*RC o_MPR121_BUSY_reg:RN 1.973e-03
*RC r_pstate_reg_3_:RN 1.973e-03
*RC r_pstate_reg_2_:RN 1.973e-03
*RC r_pstate_reg_5_:RN 1.973e-03
*RC r_pstate_reg_0_:RN 1.973e-03
*RC r_i2c_data_in_reg_1_:RN 1.973e-03
*RC r_i2c_data_in_reg_2_:RN 1.973e-03
*RC r_i2c_data_in_reg_3_:RN 1.973e-03
*RC r_i2c_data_in_reg_4_:RN 1.973e-03
*RC r_i2c_data_in_reg_5_:RN 1.973e-03
*RC r_i2c_data_in_reg_6_:RN 1.973e-03
*RC r_i2c_data_in_reg_7_:RN 1.973e-03
*RC r_i2c_data_in_reg_0_:RN 1.973e-03
*RC r_i2c_data_out_ready_reg:RN 1.973e-03
*RC r_i2c_stop_reg:RN 1.973e-03
*END

*R_NET r_i2c_start 1.413e-02
*DRIVER r_i2c_start_reg:Q
*CELL fd2qd1_hd
*C2_R1_C1 7.065e-03 9.460e-03 7.065e-03 
*LOADS
*RC U199:B 1.337e-04
*RC i2c_master/U468:A 1.337e-04
*RC i2c_master/U355:A 1.337e-04
*END

*R_NET r_i2c_read 2.464e-02
*DRIVER r_i2c_read_reg:Q
*CELL fd2qd1_hd
*C2_R1_C1 1.232e-02 1.549e-02 1.232e-02 
*LOADS
*RC U201:B 3.817e-04
*RC i2c_master/U925:A 3.817e-04
*RC i2c_master/U851:B 3.817e-04
*RC i2c_master/U650:C 3.817e-04
*RC i2c_master/U344:A 3.817e-04
*END

*R_NET r_i2c_write 2.036e-02
*DRIVER r_i2c_write_reg:Q
*CELL fd2qd1_hd
*C2_R1_C1 1.018e-02 1.094e-02 1.018e-02 
*LOADS
*RC U202:B 2.227e-04
*RC i2c_master/U867:B 2.227e-04
*RC i2c_master/U345:A 2.227e-04
*RC i2c_master/U344:B 2.227e-04
*END

*R_NET r_i2c_write_multiple 2.067e-02
*DRIVER r_i2c_write_multiple_reg:Q
*CELL fd2qd1_hd
*C2_R1_C1 1.034e-02 1.094e-02 1.034e-02 
*LOADS
*RC U170:D 2.261e-04
*RC i2c_master/U921:B 2.261e-04
*RC i2c_master/U655:C 2.261e-04
*RC i2c_master/U345:B 2.261e-04
*END

*R_NET r_i2c_stop 1.344e-02
*DRIVER r_i2c_stop_reg:Q
*CELL fd2qd1_hd
*C2_R1_C1 6.720e-03 9.460e-03 6.720e-03 
*LOADS
*RC U203:B 1.271e-04
*RC i2c_master/U922:A 1.271e-04
*RC i2c_master/U651:C 1.271e-04
*END

*R_NET r_i2c_cmd_valid 1.443e-02
*DRIVER r_i2c_cmd_valid_reg:Q
*CELL fd2qd1_hd
*C2_R1_C1 7.215e-03 9.460e-03 7.215e-03 
*LOADS
*RC U206:A 1.365e-04
*RC i2c_master/U868:B 1.365e-04
*RC i2c_master/U352:A 1.365e-04
*END

*R_NET r_i2c_data_in\[7\] 9.810e-03
*DRIVER r_i2c_data_in_reg_7_:Q
*CELL fd2qd1_hd
*C2_R1_C1 4.905e-03 9.100e-03 4.905e-03 
*LOADS
*RC U207:B 8.927e-05
*RC i2c_master/U249:D 8.927e-05
*END

*R_NET r_i2c_data_in\[6\] 9.810e-03
*DRIVER r_i2c_data_in_reg_6_:Q
*CELL fd2qd1_hd
*C2_R1_C1 4.905e-03 9.100e-03 4.905e-03 
*LOADS
*RC U208:B 8.927e-05
*RC i2c_master/U251:D 8.927e-05
*END

*R_NET r_i2c_data_in\[5\] 9.810e-03
*DRIVER r_i2c_data_in_reg_5_:Q
*CELL fd2qd1_hd
*C2_R1_C1 4.905e-03 9.100e-03 4.905e-03 
*LOADS
*RC U209:B 8.927e-05
*RC i2c_master/U254:D 8.927e-05
*END

*R_NET r_i2c_data_in\[4\] 9.810e-03
*DRIVER r_i2c_data_in_reg_4_:Q
*CELL fd2qd1_hd
*C2_R1_C1 4.905e-03 9.100e-03 4.905e-03 
*LOADS
*RC U210:B 8.927e-05
*RC i2c_master/U256:D 8.927e-05
*END

*R_NET r_i2c_data_in\[3\] 9.810e-03
*DRIVER r_i2c_data_in_reg_3_:Q
*CELL fd2qd1_hd
*C2_R1_C1 4.905e-03 9.100e-03 4.905e-03 
*LOADS
*RC U211:B 8.927e-05
*RC i2c_master/U259:D 8.927e-05
*END

*R_NET r_i2c_data_in\[2\] 9.810e-03
*DRIVER r_i2c_data_in_reg_2_:Q
*CELL fd2qd1_hd
*C2_R1_C1 4.905e-03 9.100e-03 4.905e-03 
*LOADS
*RC U212:B 8.927e-05
*RC i2c_master/U261:D 8.927e-05
*END

*R_NET r_i2c_data_in\[1\] 9.810e-03
*DRIVER r_i2c_data_in_reg_1_:Q
*CELL fd2qd1_hd
*C2_R1_C1 4.905e-03 9.100e-03 4.905e-03 
*LOADS
*RC U213:B 8.927e-05
*RC i2c_master/U264:D 8.927e-05
*END

*R_NET r_i2c_data_in\[0\] 9.810e-03
*DRIVER r_i2c_data_in_reg_0_:Q
*CELL fd2qd1_hd
*C2_R1_C1 4.905e-03 9.100e-03 4.905e-03 
*LOADS
*RC U214:B 8.927e-05
*RC i2c_master/U267:D 8.927e-05
*END

*R_NET r_i2c_data_in_valid 9.050e-03
*DRIVER r_i2c_data_in_valid_reg:Q
*CELL fd2qd1_hd
*C2_R1_C1 4.525e-03 9.100e-03 4.525e-03 
*LOADS
*RC U167:D1 8.236e-05
*RC i2c_master/U853:B 8.236e-05
*END

*R_NET w_i2c_data_in_ready 3.874e-02
*DRIVER i2c_master/data_in_ready_reg_reg:Q
*CELL fd3d1_hd
*C2_R1_C1 1.937e-02 1.715e-02 1.937e-02 
*LOADS
*RC i2c_master/U853:A 6.644e-04
*RC U146:A 6.644e-04
*RC U183:A 6.644e-04
*RC U194:B 6.644e-04
*RC U227:A 6.644e-04
*RC U248:AN 6.644e-04
*RC U252:A 6.644e-04
*END

*R_NET r_i2c_data_in_last 8.920e-03
*DRIVER r_i2c_data_in_last_reg:Q
*CELL fd2qd1_hd
*C2_R1_C1 4.460e-03 9.100e-03 4.460e-03 
*LOADS
*RC U168:B 8.117e-05
*RC i2c_master/U246:B 8.117e-05
*END

*R_NET w_i2c_data_out\[7\] 8.680e-03
*DRIVER i2c_master/data_out_reg_reg_7_:Q
*CELL fds2eqd1_hd
*C2_R1_C1 4.340e-03 9.100e-03 4.340e-03 
*LOADS
*RC i2c_master/U676:C 7.899e-05
*RC U166:B 7.899e-05
*END

*R_NET w_i2c_data_out\[6\] 8.680e-03
*DRIVER i2c_master/data_out_reg_reg_6_:Q
*CELL fds2eqd1_hd
*C2_R1_C1 4.340e-03 9.100e-03 4.340e-03 
*LOADS
*RC i2c_master/U671:C 7.899e-05
*RC U165:B 7.899e-05
*END

*R_NET w_i2c_data_out\[5\] 8.680e-03
*DRIVER i2c_master/data_out_reg_reg_5_:Q
*CELL fds2eqd1_hd
*C2_R1_C1 4.340e-03 9.100e-03 4.340e-03 
*LOADS
*RC i2c_master/U670:C 7.899e-05
*RC U164:B 7.899e-05
*END

*R_NET w_i2c_data_out\[4\] 8.680e-03
*DRIVER i2c_master/data_out_reg_reg_4_:Q
*CELL fds2eqd1_hd
*C2_R1_C1 4.340e-03 9.100e-03 4.340e-03 
*LOADS
*RC i2c_master/U669:C 7.899e-05
*RC U163:B 7.899e-05
*END

*R_NET w_i2c_data_out\[3\] 8.680e-03
*DRIVER i2c_master/data_out_reg_reg_3_:Q
*CELL fds2eqd1_hd
*C2_R1_C1 4.340e-03 9.100e-03 4.340e-03 
*LOADS
*RC i2c_master/U668:C 7.899e-05
*RC U162:B 7.899e-05
*END

*R_NET w_i2c_data_out\[2\] 8.680e-03
*DRIVER i2c_master/data_out_reg_reg_2_:Q
*CELL fds2eqd1_hd
*C2_R1_C1 4.340e-03 9.100e-03 4.340e-03 
*LOADS
*RC i2c_master/U667:C 7.899e-05
*RC U161:B 7.899e-05
*END

*R_NET w_i2c_data_out\[1\] 8.680e-03
*DRIVER i2c_master/data_out_reg_reg_1_:Q
*CELL fds2eqd1_hd
*C2_R1_C1 4.340e-03 9.100e-03 4.340e-03 
*LOADS
*RC i2c_master/U666:C 7.899e-05
*RC U160:B 7.899e-05
*END

*R_NET w_i2c_data_out\[0\] 8.680e-03
*DRIVER i2c_master/data_out_reg_reg_0_:Q
*CELL fds2eqd1_hd
*C2_R1_C1 4.340e-03 9.100e-03 4.340e-03 
*LOADS
*RC i2c_master/U683:C 7.899e-05
*RC U159:B 7.899e-05
*END

*R_NET w_i2c_data_out_valid 1.557e-02
*DRIVER i2c_master/data_out_valid_reg_reg:Q
*CELL fd3d1_hd
*C2_R1_C1 7.785e-03 9.460e-03 7.785e-03 
*LOADS
*RC i2c_master/U634:A 1.473e-04
*RC i2c_master/U98:B 1.473e-04
*RC U247:B 1.473e-04
*END

*R_NET r_i2c_data_out_ready 8.950e-03
*DRIVER r_i2c_data_out_ready_reg:Q
*CELL fd2qd1_hd
*C2_R1_C1 4.475e-03 9.100e-03 4.475e-03 
*LOADS
*RC U191:B 8.145e-05
*RC i2c_master/U536:A 8.145e-05
*END

*R_NET r_pstate\[5\] 2.359e-02
*DRIVER r_pstate_reg_5_:Q
*CELL fd2qd1_hd
*C2_R1_C1 1.179e-02 1.094e-02 1.179e-02 
*LOADS
*RC U235:A 2.581e-04
*RC U255:A 2.581e-04
*RC U265:A 2.581e-04
*RC U291:B 2.581e-04
*END

*R_NET r_pstate\[4\] 1.570e-02
*DRIVER r_pstate_reg_4_:Q
*CELL fd2qd1_hd
*C2_R1_C1 7.850e-03 9.460e-03 7.850e-03 
*LOADS
*RC U145:A 1.485e-04
*RC U254:A 1.485e-04
*RC U290:A 1.485e-04
*END

*R_NET r_pstate\[3\] 1.642e-02
*DRIVER r_pstate_reg_3_:Q
*CELL fd2qd1_hd
*C2_R1_C1 8.210e-03 9.460e-03 8.210e-03 
*LOADS
*RC U255:B 1.553e-04
*RC U266:A 1.553e-04
*RC U291:C 1.553e-04
*END

*R_NET r_pstate\[2\] 2.782e-02
*DRIVER r_pstate_reg_2_:Q
*CELL fd2qd1_hd
*C2_R1_C1 1.391e-02 1.549e-02 1.391e-02 
*LOADS
*RC U141:A 4.309e-04
*RC U235:B 4.309e-04
*RC U254:B 4.309e-04
*RC U260:B 4.309e-04
*RC U291:A 4.309e-04
*END

*R_NET r_pstate\[1\] 2.633e-02
*DRIVER r_pstate_reg_1_:Q
*CELL fd2qd1_hd
*C2_R1_C1 1.317e-02 1.549e-02 1.317e-02 
*LOADS
*RC U143:A 4.079e-04
*RC U229:B 4.079e-04
*RC U242:B 4.079e-04
*RC U262:A 4.079e-04
*RC U278:A 4.079e-04
*END

*R_NET r_pstate\[0\] 1.556e-02
*DRIVER r_pstate_reg_0_:Q
*CELL fd2qd1_hd
*C2_R1_C1 7.780e-03 9.460e-03 7.780e-03 
*LOADS
*RC U196:A 1.472e-04
*RC U229:A 1.472e-04
*RC U292:A 1.472e-04
*END

*R_NET r_clk_counter\[9\] 2.337e-02
*DRIVER r_clk_counter_reg_9_:Q
*CELL fd2qd1_hd
*C2_R1_C1 1.168e-02 1.094e-02 1.168e-02 
*LOADS
*RC U174:A 2.557e-04
*RC U236:B 2.557e-04
*RC U280:D 2.557e-04
*RC add_x_2/U13:B 2.557e-04
*END

*R_NET r_clk_counter\[8\] 2.420e-02
*DRIVER r_clk_counter_reg_8_:Q
*CELL fd2qd1_hd
*C2_R1_C1 1.210e-02 1.094e-02 1.210e-02 
*LOADS
*RC U182:A 2.647e-04
*RC U238:C 2.647e-04
*RC U280:B 2.647e-04
*RC add_x_2/U2:A 2.647e-04
*END

*R_NET r_clk_counter\[7\] 2.420e-02
*DRIVER r_clk_counter_reg_7_:Q
*CELL fd2qd1_hd
*C2_R1_C1 1.210e-02 1.094e-02 1.210e-02 
*LOADS
*RC U181:A 2.647e-04
*RC U238:D 2.647e-04
*RC U280:C 2.647e-04
*RC add_x_2/U3:A 2.647e-04
*END

*R_NET r_clk_counter\[6\] 2.366e-02
*DRIVER r_clk_counter_reg_6_:Q
*CELL fd2qd1_hd
*C2_R1_C1 1.183e-02 1.094e-02 1.183e-02 
*LOADS
*RC U180:A 2.588e-04
*RC U239:A 2.588e-04
*RC U280:A 2.588e-04
*RC add_x_2/U4:A 2.588e-04
*END

*R_NET r_clk_counter\[5\] 1.730e-02
*DRIVER r_clk_counter_reg_5_:Q
*CELL fd2qd1_hd
*C2_R1_C1 8.650e-03 9.460e-03 8.650e-03 
*LOADS
*RC U179:A 1.637e-04
*RC U238:A 1.637e-04
*RC add_x_2/U5:A 1.637e-04
*END

*R_NET r_clk_counter\[4\] 1.730e-02
*DRIVER r_clk_counter_reg_4_:Q
*CELL fd2qd1_hd
*C2_R1_C1 8.650e-03 9.460e-03 8.650e-03 
*LOADS
*RC U178:A 1.637e-04
*RC U238:B 1.637e-04
*RC add_x_2/U6:A 1.637e-04
*END

*R_NET r_clk_counter\[3\] 1.678e-02
*DRIVER r_clk_counter_reg_3_:Q
*CELL fd2qd1_hd
*C2_R1_C1 8.390e-03 9.460e-03 8.390e-03 
*LOADS
*RC U177:A 1.587e-04
*RC U240:A 1.587e-04
*RC add_x_2/U7:A 1.587e-04
*END

*R_NET r_clk_counter\[2\] 1.713e-02
*DRIVER r_clk_counter_reg_2_:Q
*CELL fd2qd1_hd
*C2_R1_C1 8.565e-03 9.460e-03 8.565e-03 
*LOADS
*RC U176:A 1.620e-04
*RC U241:C 1.620e-04
*RC add_x_2/U8:A 1.620e-04
*END

*R_NET r_clk_counter\[1\] 1.740e-02
*DRIVER r_clk_counter_reg_1_:Q
*CELL fd2qd1_hd
*C2_R1_C1 8.700e-03 9.460e-03 8.700e-03 
*LOADS
*RC U175:A 1.646e-04
*RC U241:A 1.646e-04
*RC add_x_2/U9:A 1.646e-04
*END

*R_NET r_clk_counter\[0\] 2.414e-02
*DRIVER r_clk_counter_reg_0_:Q
*CELL fd2qd1_hd
*C2_R1_C1 1.207e-02 1.094e-02 1.207e-02 
*LOADS
*RC U173:A 2.641e-04
*RC U241:B 2.641e-04
*RC add_x_2/U14:A 2.641e-04
*RC add_x_2/U9:B 2.641e-04
*END

*R_NET r_i2c_reg_addr\[7\] 4.710e-03
*DRIVER r_i2c_reg_addr_reg_7_:Q
*CELL fd1ed1_hd
*C2_R1_C1 2.355e-03 7.370e-03 2.355e-03 
*LOADS
*RC U207:E 3.471e-05
*END

*R_NET r_i2c_reg_addr\[6\] 4.710e-03
*DRIVER r_i2c_reg_addr_reg_6_:Q
*CELL fd1ed1_hd
*C2_R1_C1 2.355e-03 7.370e-03 2.355e-03 
*LOADS
*RC U208:E 3.471e-05
*END

*R_NET r_i2c_reg_addr\[5\] 4.710e-03
*DRIVER r_i2c_reg_addr_reg_5_:Q
*CELL fd1ed1_hd
*C2_R1_C1 2.355e-03 7.370e-03 2.355e-03 
*LOADS
*RC U209:E 3.471e-05
*END

*R_NET r_i2c_reg_addr\[4\] 4.710e-03
*DRIVER r_i2c_reg_addr_reg_4_:Q
*CELL fd1ed1_hd
*C2_R1_C1 2.355e-03 7.370e-03 2.355e-03 
*LOADS
*RC U210:E 3.471e-05
*END

*R_NET r_i2c_reg_addr\[3\] 4.710e-03
*DRIVER r_i2c_reg_addr_reg_3_:Q
*CELL fd1ed1_hd
*C2_R1_C1 2.355e-03 7.370e-03 2.355e-03 
*LOADS
*RC U211:E 3.471e-05
*END

*R_NET r_i2c_reg_addr\[2\] 4.710e-03
*DRIVER r_i2c_reg_addr_reg_2_:Q
*CELL fd1ed1_hd
*C2_R1_C1 2.355e-03 7.370e-03 2.355e-03 
*LOADS
*RC U212:E 3.471e-05
*END

*R_NET r_i2c_reg_addr\[1\] 4.710e-03
*DRIVER r_i2c_reg_addr_reg_1_:Q
*CELL fd1ed1_hd
*C2_R1_C1 2.355e-03 7.370e-03 2.355e-03 
*LOADS
*RC U213:E 3.471e-05
*END

*R_NET r_i2c_reg_addr\[0\] 4.730e-03
*DRIVER r_i2c_reg_addr_reg_0_:Q
*CELL fd1ed1_hd
*C2_R1_C1 2.365e-03 7.370e-03 2.365e-03 
*LOADS
*RC U214:D 3.486e-05
*END

*R_NET r_lstate_0_ 9.190e-03
*DRIVER r_lstate_reg_0_:Q
*CELL fd4qd1_hd
*C2_R1_C1 4.595e-03 9.100e-03 4.595e-03 
*LOADS
*RC U154:A 8.363e-05
*RC U186:A 8.363e-05
*END

*R_NET r_i2c_reg_data_in\[7\] 4.730e-03
*DRIVER r_i2c_reg_data_in_reg_7_:Q
*CELL fd1ed1_hd
*C2_R1_C1 2.365e-03 7.370e-03 2.365e-03 
*LOADS
*RC U207:D 3.486e-05
*END

*R_NET r_i2c_reg_data_in\[6\] 4.730e-03
*DRIVER r_i2c_reg_data_in_reg_6_:Q
*CELL fd1ed1_hd
*C2_R1_C1 2.365e-03 7.370e-03 2.365e-03 
*LOADS
*RC U208:D 3.486e-05
*END

*R_NET r_i2c_reg_data_in\[5\] 4.730e-03
*DRIVER r_i2c_reg_data_in_reg_5_:Q
*CELL fd1ed1_hd
*C2_R1_C1 2.365e-03 7.370e-03 2.365e-03 
*LOADS
*RC U209:D 3.486e-05
*END

*R_NET r_i2c_reg_data_in\[4\] 4.730e-03
*DRIVER r_i2c_reg_data_in_reg_4_:Q
*CELL fd1ed1_hd
*C2_R1_C1 2.365e-03 7.370e-03 2.365e-03 
*LOADS
*RC U210:D 3.486e-05
*END

*R_NET r_i2c_reg_data_in\[3\] 4.730e-03
*DRIVER r_i2c_reg_data_in_reg_3_:Q
*CELL fd1ed1_hd
*C2_R1_C1 2.365e-03 7.370e-03 2.365e-03 
*LOADS
*RC U211:D 3.486e-05
*END

*R_NET r_i2c_reg_data_in\[2\] 4.730e-03
*DRIVER r_i2c_reg_data_in_reg_2_:Q
*CELL fd1ed1_hd
*C2_R1_C1 2.365e-03 7.370e-03 2.365e-03 
*LOADS
*RC U212:D 3.486e-05
*END

*R_NET r_i2c_reg_data_in\[1\] 4.730e-03
*DRIVER r_i2c_reg_data_in_reg_1_:Q
*CELL fd1ed1_hd
*C2_R1_C1 2.365e-03 7.370e-03 2.365e-03 
*LOADS
*RC U213:D 3.486e-05
*END

*R_NET r_i2c_reg_data_in\[0\] 4.670e-03
*DRIVER r_i2c_reg_data_in_reg_0_:Q
*CELL fd1ed1_hd
*C2_R1_C1 2.335e-03 7.370e-03 2.335e-03 
*LOADS
*RC U214:F 3.442e-05
*END

*R_NET N183 4.680e-03
*DRIVER add_x_2/U14:Y
*CELL ivd1_hd
*C2_R1_C1 2.340e-03 7.370e-03 2.340e-03 
*LOADS
*RC U173:C 3.449e-05
*END

*R_NET N184 4.680e-03
*DRIVER add_x_2/U9:S
*CELL had1_hd
*C2_R1_C1 2.340e-03 7.370e-03 2.340e-03 
*LOADS
*RC U175:C 3.449e-05
*END

*R_NET N185 4.680e-03
*DRIVER add_x_2/U8:S
*CELL had1_hd
*C2_R1_C1 2.340e-03 7.370e-03 2.340e-03 
*LOADS
*RC U176:C 3.449e-05
*END

*R_NET N186 4.680e-03
*DRIVER add_x_2/U7:S
*CELL had1_hd
*C2_R1_C1 2.340e-03 7.370e-03 2.340e-03 
*LOADS
*RC U177:C 3.449e-05
*END

*R_NET N187 4.680e-03
*DRIVER add_x_2/U6:S
*CELL had1_hd
*C2_R1_C1 2.340e-03 7.370e-03 2.340e-03 
*LOADS
*RC U178:C 3.449e-05
*END

*R_NET N188 4.680e-03
*DRIVER add_x_2/U5:S
*CELL had1_hd
*C2_R1_C1 2.340e-03 7.370e-03 2.340e-03 
*LOADS
*RC U179:C 3.449e-05
*END

*R_NET N189 4.680e-03
*DRIVER add_x_2/U4:S
*CELL had1_hd
*C2_R1_C1 2.340e-03 7.370e-03 2.340e-03 
*LOADS
*RC U180:C 3.449e-05
*END

*R_NET N190 4.680e-03
*DRIVER add_x_2/U3:S
*CELL had1_hd
*C2_R1_C1 2.340e-03 7.370e-03 2.340e-03 
*LOADS
*RC U181:C 3.449e-05
*END

*R_NET N191 4.680e-03
*DRIVER add_x_2/U2:S
*CELL had1_hd
*C2_R1_C1 2.340e-03 7.370e-03 2.340e-03 
*LOADS
*RC U182:C 3.449e-05
*END

*R_NET N192 4.680e-03
*DRIVER add_x_2/U13:Y
*CELL xo2d1_hd
*C2_R1_C1 2.340e-03 7.370e-03 2.340e-03 
*LOADS
*RC U174:C 3.449e-05
*END

*R_NET N279 4.500e-03
*DRIVER U288:Y
*CELL ad2d1_hd
*C2_R1_C1 2.250e-03 7.370e-03 2.250e-03 
*LOADS
*RC r_i2c_reg_addr_reg_0_:D 3.316e-05
*END

*R_NET N280 4.500e-03
*DRIVER U286:Y
*CELL nr2bd1_hd
*C2_R1_C1 2.250e-03 7.370e-03 2.250e-03 
*LOADS
*RC r_i2c_reg_addr_reg_1_:D 3.316e-05
*END

*R_NET N281 4.500e-03
*DRIVER U285:Y
*CELL nr2bd1_hd
*C2_R1_C1 2.250e-03 7.370e-03 2.250e-03 
*LOADS
*RC r_i2c_reg_addr_reg_2_:D 3.316e-05
*END

*R_NET N282 4.500e-03
*DRIVER U284:Y
*CELL nr2bd1_hd
*C2_R1_C1 2.250e-03 7.370e-03 2.250e-03 
*LOADS
*RC r_i2c_reg_addr_reg_3_:D 3.316e-05
*END

*R_NET N283 4.500e-03
*DRIVER U283:Y
*CELL nr2bd1_hd
*C2_R1_C1 2.250e-03 7.370e-03 2.250e-03 
*LOADS
*RC r_i2c_reg_addr_reg_4_:D 3.316e-05
*END

*R_NET N284 4.500e-03
*DRIVER U282:Y
*CELL nr2bd1_hd
*C2_R1_C1 2.250e-03 7.370e-03 2.250e-03 
*LOADS
*RC r_i2c_reg_addr_reg_5_:D 3.316e-05
*END

*R_NET N285 4.500e-03
*DRIVER U281:Y
*CELL nr2bd1_hd
*C2_R1_C1 2.250e-03 7.370e-03 2.250e-03 
*LOADS
*RC r_i2c_reg_addr_reg_6_:D 3.316e-05
*END

*R_NET N286 4.500e-03
*DRIVER U276:Y
*CELL scg6d1_hd
*C2_R1_C1 2.250e-03 7.370e-03 2.250e-03 
*LOADS
*RC r_i2c_reg_addr_reg_7_:D 3.316e-05
*END

*R_NET N287 4.500e-03
*DRIVER U275:Y