*SPEF "IEEE 1481-1999"
*DESIGN "mpr121_controller"
*DATE "Wed May 13 04:00:19 2020"
*VENDOR "SYNOPSYS INC"
*PROGRAM "Synopsys Design Compiler cmos"
*VERSION "F-2011.09-SP5-3"
*DESIGN_FLOW "SYNTHESIS"
*DIVIDER /
*DELIMITER :
*BUS_DELIMITER []
*T_UNIT 1.0 NS
*C_UNIT 1.0 PF
*R_UNIT 1.0 KOHM
*L_UNIT 1.0 HENRY

*PORTS

o_MPR121_DATA_OUT\[7\] O *L 0.000e+00 *S 6.972e-02 1.016e-01 
o_MPR121_DATA_OUT\[6\] O *L 0.000e+00 *S 6.972e-02 1.016e-01 
o_MPR121_DATA_OUT\[5\] O *L 0.000e+00 *S 6.972e-02 1.016e-01 
o_MPR121_DATA_OUT\[4\] O *L 0.000e+00 *S 6.972e-02 1.016e-01 
o_MPR121_DATA_OUT\[3\] O *L 0.000e+00 *S 6.972e-02 1.016e-01 
o_MPR121_DATA_OUT\[2\] O *L 0.000e+00 *S 6.972e-02 1.016e-01 
o_MPR121_DATA_OUT\[1\] O *L 0.000e+00 *S 6.972e-02 1.016e-01 
o_MPR121_DATA_OUT\[0\] O *L 0.000e+00 *S 6.972e-02 1.016e-01 
o_MPR121_REG_ADDR\[7\] I *L 0.000e+00 *S 0.000e+00 0.000e+00 
o_MPR121_REG_ADDR\[6\] I *L 0.000e+00 *S 0.000e+00 0.000e+00 
o_MPR121_REG_ADDR\[5\] I *L 0.000e+00 *S 0.000e+00 0.000e+00 
o_MPR121_REG_ADDR\[4\] I *L 0.000e+00 *S 0.000e+00 0.000e+00 
o_MPR121_REG_ADDR\[3\] I *L 0.000e+00 *S 0.000e+00 0.000e+00 
o_MPR121_REG_ADDR\[2\] I *L 0.000e+00 *S 0.000e+00 0.000e+00 
o_MPR121_REG_ADDR\[1\] I *L 0.000e+00 *S 0.000e+00 0.000e+00 
o_MPR121_REG_ADDR\[0\] I *L 0.000e+00 *S 0.000e+00 0.000e+00 
i_MPR121_DATA_IN\[7\] I *L 0.000e+00 *S 0.000e+00 0.000e+00 
i_MPR121_DATA_IN\[6\] I *L 0.000e+00 *S 0.000e+00 0.000e+00 
i_MPR121_DATA_IN\[5\] I *L 0.000e+00 *S 0.000e+00 0.000e+00 
i_MPR121_DATA_IN\[4\] I *L 0.000e+00 *S 0.000e+00 0.000e+00 
i_MPR121_DATA_IN\[3\] I *L 0.000e+00 *S 0.000e+00 0.000e+00 
i_MPR121_DATA_IN\[2\] I *L 0.000e+00 *S 0.000e+00 0.000e+00 
i_MPR121_DATA_IN\[1\] I *L 0.000e+00 *S 0.000e+00 0.000e+00 
i_MPR121_DATA_IN\[0\] I *L 0.000e+00 *S 0.000e+00 0.000e+00 
i_MPR121_WRITE_ENABLE I *L 0.000e+00 *S 0.000e+00 0.000e+00 
i_MPR121_READ_ENABLE I *L 0.000e+00 *S 0.000e+00 0.000e+00 
o_MPR121_INIT_SET O *L 0.000e+00 *S 7.421e-02 1.073e-01 
o_MPR121_BUSY O *L 0.000e+00 *S 7.906e-02 1.134e-01 
o_MPR121_FAIL O *L 0.000e+00 *S 3.342e-02 3.328e-02 
i_I2C_SCL_IN I *L 0.000e+00 *S 0.000e+00 0.000e+00 
i_I2C_SDA_IN I *L 0.000e+00 *S 0.000e+00 0.000e+00 
o_I2C_SCL_OUT O *L 0.000e+00 *S 2.860e-02 2.275e-02 
o_I2C_SDA_OUT O *L 0.000e+00 *S 7.447e-02 6.984e-02 
o_I2C_SCL_EN O *L 0.000e+00 *S 1.707e-01 1.412e-01 
o_I2C_SDA_EN O *L 0.000e+00 *S 1.310e-01 8.802e-02 
i_CLK I *L 0.000e+00 *S 0.000e+00 0.000e+00 
i_RSTN I *L 0.000e+00 *S 0.000e+00 0.000e+00 

*R_NET o_MPR121_DATA_OUT\[7\] 7.050e-03
*DRIVER o_MPR121_DATA_OUT_reg_7_:Q
*CELL fd2qd1_hd
*C2_R1_C1 3.525e-03 9.100e-03 3.525e-03 
*LOADS
*RC U204:C 6.416e-05
*RC o_MPR121_DATA_OUT\[7\] 6.416e-05
*END

*R_NET o_MPR121_DATA_OUT\[6\] 7.050e-03
*DRIVER o_MPR121_DATA_OUT_reg_6_:Q
*CELL fd2qd1_hd
*C2_R1_C1 3.525e-03 9.100e-03 3.525e-03 
*LOADS
*RC U201:C 6.416e-05
*RC o_MPR121_DATA_OUT\[6\] 6.416e-05
*END

*R_NET o_MPR121_DATA_OUT\[5\] 7.050e-03
*DRIVER o_MPR121_DATA_OUT_reg_5_:Q
*CELL fd2qd1_hd
*C2_R1_C1 3.525e-03 9.100e-03 3.525e-03 
*LOADS
*RC U199:C 6.416e-05
*RC o_MPR121_DATA_OUT\[5\] 6.416e-05
*END

*R_NET o_MPR121_DATA_OUT\[4\] 7.050e-03
*DRIVER o_MPR121_DATA_OUT_reg_4_:Q
*CELL fd2qd1_hd
*C2_R1_C1 3.525e-03 9.100e-03 3.525e-03 
*LOADS
*RC U197:C 6.416e-05
*RC o_MPR121_DATA_OUT\[4\] 6.416e-05
*END

*R_NET o_MPR121_DATA_OUT\[3\] 7.050e-03
*DRIVER o_MPR121_DATA_OUT_reg_3_:Q
*CELL fd2qd1_hd
*C2_R1_C1 3.525e-03 9.100e-03 3.525e-03 
*LOADS
*RC U196:C 6.416e-05
*RC o_MPR121_DATA_OUT\[3\] 6.416e-05
*END

*R_NET o_MPR121_DATA_OUT\[2\] 7.050e-03
*DRIVER o_MPR121_DATA_OUT_reg_2_:Q
*CELL fd2qd1_hd
*C2_R1_C1 3.525e-03 9.100e-03 3.525e-03 
*LOADS
*RC U202:C 6.416e-05
*RC o_MPR121_DATA_OUT\[2\] 6.416e-05
*END

*R_NET o_MPR121_DATA_OUT\[1\] 7.050e-03
*DRIVER o_MPR121_DATA_OUT_reg_1_:Q
*CELL fd2qd1_hd
*C2_R1_C1 3.525e-03 9.100e-03 3.525e-03 
*LOADS
*RC U198:C 6.416e-05
*RC o_MPR121_DATA_OUT\[1\] 6.416e-05
*END

*R_NET o_MPR121_DATA_OUT\[0\] 7.050e-03
*DRIVER o_MPR121_DATA_OUT_reg_0_:Q
*CELL fd2qd1_hd
*C2_R1_C1 3.525e-03 9.100e-03 3.525e-03 
*LOADS
*RC U203:C 6.416e-05
*RC o_MPR121_DATA_OUT\[0\] 6.416e-05
*END

*R_NET o_MPR121_REG_ADDR\[7\] 5.900e-03
*DRIVER o_MPR121_REG_ADDR\[7\]
*CELL NULL
*C2_R1_C1 2.950e-03 7.370e-03 2.950e-03 
*LOADS
*RC U90:D 4.348e-05
*END

*R_NET o_MPR121_REG_ADDR\[6\] 4.670e-03
*DRIVER o_MPR121_REG_ADDR\[6\]
*CELL NULL
*C2_R1_C1 2.335e-03 7.370e-03 2.335e-03 
*LOADS
*RC U91:D 3.442e-05
*END

*R_NET o_MPR121_REG_ADDR\[5\] 4.670e-03
*DRIVER o_MPR121_REG_ADDR\[5\]
*CELL NULL
*C2_R1_C1 2.335e-03 7.370e-03 2.335e-03 
*LOADS
*RC U92:D 3.442e-05
*END

*R_NET o_MPR121_REG_ADDR\[4\] 4.670e-03
*DRIVER o_MPR121_REG_ADDR\[4\]
*CELL NULL
*C2_R1_C1 2.335e-03 7.370e-03 2.335e-03 
*LOADS
*RC U93:D 3.442e-05
*END

*R_NET o_MPR121_REG_ADDR\[3\] 4.670e-03
*DRIVER o_MPR121_REG_ADDR\[3\]
*CELL NULL
*C2_R1_C1 2.335e-03 7.370e-03 2.335e-03 
*LOADS
*RC U94:D 3.442e-05
*END

*R_NET o_MPR121_REG_ADDR\[2\] 4.670e-03
*DRIVER o_MPR121_REG_ADDR\[2\]
*CELL NULL
*C2_R1_C1 2.335e-03 7.370e-03 2.335e-03 
*LOADS
*RC U95:D 3.442e-05
*END

*R_NET o_MPR121_REG_ADDR\[1\] 4.670e-03
*DRIVER o_MPR121_REG_ADDR\[1\]
*CELL NULL
*C2_R1_C1 2.335e-03 7.370e-03 2.335e-03 
*LOADS
*RC U96:D 3.442e-05
*END

*R_NET o_MPR121_REG_ADDR\[0\] 4.670e-03
*DRIVER o_MPR121_REG_ADDR\[0\]
*CELL NULL
*C2_R1_C1 2.335e-03 7.370e-03 2.335e-03 
*LOADS
*RC U97:D 3.442e-05
*END

*R_NET i_MPR121_DATA_IN\[7\] 4.670e-03
*DRIVER i_MPR121_DATA_IN\[7\]
*CELL NULL
*C2_R1_C1 2.335e-03 7.370e-03 2.335e-03 
*LOADS
*RC U76:D 3.442e-05
*END

*R_NET i_MPR121_DATA_IN\[6\] 5.900e-03
*DRIVER i_MPR121_DATA_IN\[6\]
*CELL NULL
*C2_R1_C1 2.950e-03 7.370e-03 2.950e-03 
*LOADS
*RC U78:D 4.348e-05
*END

*R_NET i_MPR121_DATA_IN\[5\] 5.900e-03
*DRIVER i_MPR121_DATA_IN\[5\]
*CELL NULL
*C2_R1_C1 2.950e-03 7.370e-03 2.950e-03 
*LOADS
*RC U80:D 4.348e-05
*END

*R_NET i_MPR121_DATA_IN\[4\] 4.670e-03
*DRIVER i_MPR121_DATA_IN\[4\]
*CELL NULL
*C2_R1_C1 2.335e-03 7.370e-03 2.335e-03 
*LOADS
*RC U81:D 3.442e-05
*END

*R_NET i_MPR121_DATA_IN\[3\] 4.670e-03
*DRIVER i_MPR121_DATA_IN\[3\]
*CELL NULL
*C2_R1_C1 2.335e-03 7.370e-03 2.335e-03 
*LOADS
*RC U82:D 3.442e-05
*END

*R_NET i_MPR121_DATA_IN\[2\] 4.670e-03
*DRIVER i_MPR121_DATA_IN\[2\]
*CELL NULL
*C2_R1_C1 2.335e-03 7.370e-03 2.335e-03 
*LOADS
*RC U83:D 3.442e-05
*END

*R_NET i_MPR121_DATA_IN\[1\] 5.900e-03
*DRIVER i_MPR121_DATA_IN\[1\]
*CELL NULL
*C2_R1_C1 2.950e-03 7.370e-03 2.950e-03 
*LOADS
*RC U85:D 4.348e-05
*END

*R_NET i_MPR121_DATA_IN\[0\] 5.900e-03
*DRIVER i_MPR121_DATA_IN\[0\]
*CELL NULL
*C2_R1_C1 2.950e-03 7.370e-03 2.950e-03 
*LOADS
*RC U87:D 4.348e-05
*END

*R_NET i_MPR121_WRITE_ENABLE 2.288e-02
*DRIVER i_MPR121_WRITE_ENABLE
*CELL NULL
*C2_R1_C1 1.144e-02 1.094e-02 1.144e-02 
*LOADS
*RC U183:A 2.503e-04
*RC U237:A 2.503e-04
*RC U244:A 2.503e-04
*RC U293:A 2.503e-04
*END

*R_NET i_MPR121_READ_ENABLE 1.008e-02
*DRIVER i_MPR121_READ_ENABLE
*CELL NULL
*C2_R1_C1 5.040e-03 9.100e-03 5.040e-03 
*LOADS
*RC U215:A 9.173e-05
*RC U237:B 9.173e-05
*END

*R_NET o_MPR121_INIT_SET 7.560e-03
*DRIVER o_MPR121_INIT_SET_reg:Q
*CELL fd2qd1_hd
*C2_R1_C1 3.780e-03 9.100e-03 3.780e-03 
*LOADS
*RC U192:B 6.880e-05
*RC o_MPR121_INIT_SET 6.880e-05
*END

*R_NET o_MPR121_BUSY 8.110e-03
*DRIVER o_MPR121_BUSY_reg:Q
*CELL fd2qd1_hd
*C2_R1_C1 4.055e-03 9.100e-03 4.055e-03 
*LOADS
*RC U286:A 7.380e-05
*RC o_MPR121_BUSY 7.380e-05
*END

*R_NET o_MPR121_FAIL 3.150e-03
*DRIVER i2c_master/missed_ack_reg_reg:Q
*CELL fd1qd1_hd
*C2_R1_C1 1.575e-03 7.370e-03 1.575e-03 
*LOADS
*RC o_MPR121_FAIL 2.322e-05
*END

*R_NET i_I2C_SCL_IN 4.680e-03
*DRIVER i_I2C_SCL_IN
*CELL NULL
*C2_R1_C1 2.340e-03 7.370e-03 2.340e-03 
*LOADS
*RC i2c_master/scl_i_reg_reg:D 3.449e-05
*END

*R_NET i_I2C_SDA_IN 4.680e-03
*DRIVER i_I2C_SDA_IN
*CELL NULL
*C2_R1_C1 2.340e-03 7.370e-03 2.340e-03 
*LOADS
*RC i2c_master/sda_i_reg_reg:D 3.449e-05
*END

*R_NET o_I2C_SCL_OUT 3.150e-03
*DRIVER i2c_master/U460:Y
*CELL nid1_hd
*C2_R1_C1 1.575e-03 7.370e-03 1.575e-03 
*LOADS
*RC o_I2C_SCL_OUT 2.322e-05
*END

*R_NET o_I2C_SDA_OUT 7.590e-03
*DRIVER i2c_master/sda_o_reg_reg:Q
*CELL fd1qd1_hd
*C2_R1_C1 3.795e-03 9.100e-03 3.795e-03 
*LOADS
*RC i2c_master/U483:A 6.907e-05
*RC o_I2C_SDA_OUT 6.907e-05
*END

*R_NET o_I2C_SCL_EN 1.911e-02
*DRIVER i2c_master/scl_o_reg_reg:Q
*CELL fd1qd1_hd
*C2_R1_C1 9.555e-03 1.094e-02 9.555e-03 
*LOADS
*RC o_I2C_SCL_EN 2.091e-04
*RC i2c_master/U460:A 2.091e-04
*RC i2c_master/U588:C 2.091e-04
*RC i2c_master/U194:A 2.091e-04
*END

*R_NET o_I2C_SDA_EN 1.465e-02
*DRIVER i2c_master/U483:Y
*CELL ivd1_hd
*C2_R1_C1 7.325e-03 9.460e-03 7.325e-03 
*LOADS
*RC i2c_master/U609:A 1.386e-04
*RC i2c_master/U206:B 1.386e-04
*RC o_I2C_SDA_EN 1.386e-04
*END

*R_NET i_CLK 3.997e-01
*DRIVER i_CLK
*CELL NULL
*C2_R1_C1 1.999e-01 7.031e-02 1.999e-01 
*LOADS
*RC r_pstate_reg_2_:CK 2.811e-02
*RC r_i2c_data_in_last_reg:CK 2.811e-02
*RC r_i2c_reg_data_in_reg_6_:CK 2.811e-02
*RC r_i2c_reg_data_in_reg_5_:CK 2.811e-02
*RC r_i2c_reg_data_in_reg_1_:CK 2.811e-02
*RC r_i2c_reg_data_in_reg_0_:CK 2.811e-02
*RC r_i2c_reg_addr_reg_7_:CK 2.811e-02
*RC r_i2c_reg_data_in_reg_7_:CK 2.811e-02
*RC r_i2c_reg_data_in_reg_4_:CK 2.811e-02
*RC r_i2c_reg_data_in_reg_3_:CK 2.811e-02
*RC r_i2c_reg_data_in_reg_2_:CK 2.811e-02
*RC r_i2c_reg_addr_reg_6_:CK 2.811e-02
*RC r_i2c_reg_addr_reg_5_:CK 2.811e-02
*RC r_i2c_reg_addr_reg_4_:CK 2.811e-02
*RC r_i2c_reg_addr_reg_3_:CK 2.811e-02
*RC r_i2c_reg_addr_reg_2_:CK 2.811e-02
*RC r_i2c_reg_addr_reg_1_:CK 2.811e-02
*RC r_i2c_reg_addr_reg_0_:CK 2.811e-02
*RC r_lstate_reg_0_:CK 2.811e-02
*RC r_pstate_reg_4_:CK 2.811e-02
*RC r_pstate_reg_1_:CK 2.811e-02
*RC o_MPR121_DATA_OUT_reg_7_:CK 2.811e-02
*RC o_MPR121_DATA_OUT_reg_6_:CK 2.811e-02
*RC o_MPR121_DATA_OUT_reg_5_:CK 2.811e-02
*RC o_MPR121_DATA_OUT_reg_4_:CK 2.811e-02
*RC o_MPR121_DATA_OUT_reg_3_:CK 2.811e-02
*RC o_MPR121_DATA_OUT_reg_2_:CK 2.811e-02
*RC o_MPR121_DATA_OUT_reg_1_:CK 2.811e-02
*RC o_MPR121_DATA_OUT_reg_0_:CK 2.811e-02
*RC o_MPR121_INIT_SET_reg:CK 2.811e-02
*RC r_i2c_start_reg:CK 2.811e-02
*RC o_MPR121_BUSY_reg:CK 2.811e-02
*RC r_i2c_read_reg:CK 2.811e-02
*RC r_i2c_write_multiple_reg:CK 2.811e-02
*RC r_i2c_write_reg:CK 2.811e-02
*RC r_i2c_data_out_ready_reg:CK 2.811e-02
*RC r_i2c_cmd_valid_reg:CK 2.811e-02
*RC r_clk_counter_reg_5_:CK 2.811e-02
*RC r_clk_counter_reg_3_:CK 2.811e-02
*RC r_clk_counter_reg_6_:CK 2.811e-02
*RC r_clk_counter_reg_0_:CK 2.811e-02
*RC r_i2c_data_in_valid_reg:CK 2.811e-02
*RC r_clk_counter_reg_4_:CK 2.811e-02
*RC r_clk_counter_reg_7_:CK 2.811e-02
*RC r_clk_counter_reg_8_:CK 2.811e-02
*RC r_clk_counter_reg_1_:CK 2.811e-02
*RC r_i2c_data_in_reg_7_:CK 2.811e-02
*RC r_i2c_data_in_reg_6_:CK 2.811e-02
*RC r_i2c_data_in_reg_5_:CK 2.811e-02
*RC r_i2c_data_in_reg_4_:CK 2.811e-02
*RC r_i2c_data_in_reg_3_:CK 2.811e-02
*RC r_i2c_data_in_reg_2_:CK 2.811e-02
*RC r_i2c_data_in_reg_1_:CK 2.811e-02
*RC r_clk_counter_reg_2_:CK 2.811e-02
*RC r_i2c_data_in_reg_0_:CK 2.811e-02
*RC r_pstate_reg_0_:CK 2.811e-02
*RC r_lstate_reg_1_:CK 2.811e-02
*RC r_pstate_reg_3_:CK 2.811e-02
*RC r_pstate_reg_5_:CK 2.811e-02
*RC i2c_master/phy_rx_data_reg_reg:CK 2.811e-02
*RC i2c_master/sda_i_reg_reg:CK 2.811e-02
*RC i2c_master/last_sda_i_reg_reg:CK 2.811e-02
*RC i2c_master/bus_active_reg_reg:CK 2.811e-02
*RC i2c_master/missed_ack_reg_reg:CK 2.811e-02
*RC i2c_master/cmd_ready_reg_reg:CK 2.811e-02
*RC i2c_master/data_out_valid_reg_reg:CK 2.811e-02
*RC i2c_master/data_in_ready_reg_reg:CK 2.811e-02
*RC i2c_master/bit_count_reg_reg_3_:CK 2.811e-02
*RC i2c_master/state_reg_reg_3_:CK 2.811e-02
*RC i2c_master/state_reg_reg_2_:CK 2.811e-02
*RC i2c_master/state_reg_reg_1_:CK 2.811e-02
*RC i2c_master/bit_count_reg_reg_2_:CK 2.811e-02
*RC i2c_master/data_out_reg_reg_7_:CK 2.811e-02
*RC i2c_master/data_out_reg_reg_6_:CK 2.811e-02
*RC i2c_master/data_out_reg_reg_5_:CK 2.811e-02
*RC i2c_master/data_out_reg_reg_4_:CK 2.811e-02
*RC i2c_master/data_out_reg_reg_3_:CK 2.811e-02
*RC i2c_master/data_out_reg_reg_2_:CK 2.811e-02
*RC i2c_master/data_out_reg_reg_1_:CK 2.811e-02
*RC i2c_master/data_out_reg_reg_0_:CK 2.811e-02
*RC i2c_master/bit_count_reg_reg_1_:CK 2.811e-02
*RC i2c_master/bit_count_reg_reg_0_:CK 2.811e-02
*RC i2c_master/state_reg_reg_0_:CK 2.811e-02
*RC i2c_master/mode_read_reg_reg:CK 2.811e-02
*RC i2c_master/mode_write_multiple_reg_reg:CK 2.811e-02
*RC i2c_master/mode_stop_reg_reg:CK 2.811e-02
*RC i2c_master/last_reg_reg:CK 2.811e-02
*RC i2c_master/data_reg_reg_7_:CK 2.811e-02
*RC i2c_master/data_reg_reg_3_:CK 2.811e-02
*RC i2c_master/data_reg_reg_6_:CK 2.811e-02
*RC i2c_master/data_reg_reg_5_:CK 2.811e-02
*RC i2c_master/data_reg_reg_4_:CK 2.811e-02
*RC i2c_master/data_reg_reg_2_:CK 2.811e-02
*RC i2c_master/data_reg_reg_1_:CK 2.811e-02
*RC i2c_master/data_reg_reg_0_:CK 2.811e-02
*RC i2c_master/delay_scl_reg_reg:CK 2.811e-02
*RC i2c_master/delay_reg_reg_6_:CK 2.811e-02
*RC i2c_master/delay_reg_reg_5_:CK 2.811e-02
*RC i2c_master/delay_reg_reg_4_:CK 2.811e-02
*RC i2c_master/delay_reg_reg_3_:CK 2.811e-02
*RC i2c_master/delay_reg_reg_2_:CK 2.811e-02
*RC i2c_master/delay_reg_reg_0_:CK 2.811e-02
*RC i2c_master/delay_reg_reg_16_:CK 2.811e-02
*RC i2c_master/delay_reg_reg_15_:CK 2.811e-02
*RC i2c_master/delay_reg_reg_14_:CK 2.811e-02
*RC i2c_master/delay_reg_reg_13_:CK 2.811e-02
*RC i2c_master/delay_reg_reg_12_:CK 2.811e-02
*RC i2c_master/delay_reg_reg_11_:CK 2.811e-02
*RC i2c_master/delay_reg_reg_10_:CK 2.811e-02
*RC i2c_master/delay_reg_reg_1_:CK 2.811e-02
*RC i2c_master/delay_reg_reg_9_:CK 2.811e-02
*RC i2c_master/delay_reg_reg_7_:CK 2.811e-02
*RC i2c_master/delay_reg_reg_8_:CK 2.811e-02
*RC i2c_master/phy_state_reg_reg_1_:CK 2.811e-02
*RC i2c_master/phy_state_reg_reg_3_:CK 2.811e-02
*RC i2c_master/phy_state_reg_reg_2_:CK 2.811e-02
*RC i2c_master/phy_state_reg_reg_0_:CK 2.811e-02
*RC i2c_master/sda_o_reg_reg:CK 2.811e-02
*RC i2c_master/scl_i_reg_reg:CK 2.811e-02
*RC i2c_master/bus_control_reg_reg:CK 2.811e-02
*RC i2c_master/scl_o_reg_reg:CK 2.811e-02
*END

*R_NET r_i2c_start 1.571e-02
*DRIVER r_i2c_start_reg:Q
*CELL fd2qd1_hd
*C2_R1_C1 7.855e-03 9.460e-03 7.855e-03 
*LOADS
*RC U213:A 1.486e-04
*RC i2c_master/U542:B 1.486e-04
*RC i2c_master/U568:B 1.486e-04
*END

*R_NET r_i2c_read 2.047e-02
*DRIVER r_i2c_read_reg:Q
*CELL fd2qd1_hd
*C2_R1_C1 1.023e-02 1.094e-02 1.023e-02 
*LOADS
*RC U266:B 2.239e-04
*RC i2c_master/U442:A 2.239e-04
*RC i2c_master/U498:A 2.239e-04
*RC i2c_master/U542:A 2.239e-04
*END

*R_NET r_i2c_write 1.533e-02
*DRIVER r_i2c_write_reg:Q
*CELL fd2qd1_hd
*C2_R1_C1 7.665e-03 9.460e-03 7.665e-03 
*LOADS
*RC U267:B 1.450e-04
*RC i2c_master/U526:B 1.450e-04
*RC i2c_master/U568:A 1.450e-04
*END

*R_NET r_i2c_write_multiple 1.437e-02
*DRIVER r_i2c_write_multiple_reg:Q
*CELL fd2qd1_hd
*C2_R1_C1 7.185e-03 9.460e-03 7.185e-03 
*LOADS
*RC U268:B 1.359e-04
*RC i2c_master/U444:C 1.359e-04
*RC i2c_master/U526:A 1.359e-04
*END

*R_NET r_i2c_cmd_valid 1.662e-02
*DRIVER r_i2c_cmd_valid_reg:Q
*CELL fd2qd1_hd
*C2_R1_C1 8.310e-03 9.460e-03 8.310e-03 
*LOADS
*RC U271:B 1.572e-04
*RC i2c_master/U527:C 1.572e-04
*RC i2c_master/U537:C 1.572e-04
*END

*R_NET r_i2c_data_in\[7\] 9.810e-03
*DRIVER r_i2c_data_in_reg_7_:Q
*CELL fd2qd1_hd
*C2_R1_C1 4.905e-03 9.100e-03 4.905e-03 
*LOADS
*RC U278:B 8.927e-05
*RC i2c_master/U623:D 8.927e-05
*END

*R_NET r_i2c_data_in\[6\] 9.810e-03
*DRIVER r_i2c_data_in_reg_6_:Q
*CELL fd2qd1_hd
*C2_R1_C1 4.905e-03 9.100e-03 4.905e-03 
*LOADS
*RC U277:B 8.927e-05
*RC i2c_master/U625:D 8.927e-05
*END

*R_NET r_i2c_data_in\[5\] 9.810e-03
*DRIVER r_i2c_data_in_reg_5_:Q
*CELL fd2qd1_hd
*C2_R1_C1 4.905e-03 9.100e-03 4.905e-03 
*LOADS
*RC U276:B 8.927e-05
*RC i2c_master/U627:D 8.927e-05
*END

*R_NET r_i2c_data_in\[4\] 9.810e-03
*DRIVER r_i2c_data_in_reg_4_:Q
*CELL fd2qd1_hd
*C2_R1_C1 4.905e-03 9.100e-03 4.905e-03 
*LOADS
*RC U275:B 8.927e-05
*RC i2c_master/U629:D 8.927e-05
*END

*R_NET r_i2c_data_in\[3\] 9.810e-03
*DRIVER r_i2c_data_in_reg_3_:Q
*CELL fd2qd1_hd
*C2_R1_C1 4.905e-03 9.100e-03 4.905e-03 
*LOADS
*RC U274:B 8.927e-05
*RC i2c_master/U631:D 8.927e-05
*END

*R_NET r_i2c_data_in\[2\] 9.810e-03
*DRIVER r_i2c_data_in_reg_2_:Q
*CELL fd2qd1_hd
*C2_R1_C1 4.905e-03 9.100e-03 4.905e-03 
*LOADS
*RC U273:B 8.927e-05
*RC i2c_master/U633:D 8.927e-05
*END

*R_NET r_i2c_data_in\[1\] 9.810e-03
*DRIVER r_i2c_data_in_reg_1_:Q
*CELL fd2qd1_hd
*C2_R1_C1 4.905e-03 9.100e-03 4.905e-03 
*LOADS
*RC U272:B 8.927e-05
*RC i2c_master/U635:D 8.927e-05
*END

*R_NET r_i2c_data_in\[0\] 9.630e-03
*DRIVER r_i2c_data_in_reg_0_:Q
*CELL fd2qd1_hd
*C2_R1_C1 4.815e-03 9.100e-03 4.815e-03 
*LOADS
*RC U262:B 8.763e-05
*RC i2c_master/U637:D 8.763e-05
*END

*R_NET r_i2c_data_in_valid 1.638e-02
*DRIVER r_i2c_data_in_valid_reg:Q
*CELL fd2qd1_hd
*C2_R1_C1 8.190e-03 9.460e-03 8.190e-03 
*LOADS
*RC U193:D1 1.550e-04
*RC i2c_master/U555:B 1.550e-04
*RC i2c_master/U611:C 1.550e-04
*END

*R_NET w_i2c_data_in_ready 2.692e-02
*DRIVER i2c_master/data_in_ready_reg_reg:Q
*CELL fd1qd1_hd
*C2_R1_C1 1.346e-02 1.549e-02 1.346e-02 
*LOADS
*RC i2c_master/U555:A 4.170e-04
*RC i2c_master/U611:B 4.170e-04
*RC U158:A 4.170e-04
*RC U246:A 4.170e-04
*RC U288:A 4.170e-04
*END

*R_NET r_i2c_data_in_last 9.810e-03
*DRIVER r_i2c_data_in_last_reg:Q
*CELL fd2qd1_hd
*C2_R1_C1 4.905e-03 9.100e-03 4.905e-03 
*LOADS
*RC U279:B 8.927e-05
*RC i2c_master/U441:D 8.927e-05
*END

*R_NET w_i2c_data_out\[7\] 8.680e-03
*DRIVER i2c_master/data_out_reg_reg_7_:Q
*CELL fd1qd1_hd
*C2_R1_C1 4.340e-03 9.100e-03 4.340e-03 
*LOADS
*RC i2c_master/U449:C 7.899e-05
*RC U204:B 7.899e-05
*END

*R_NET w_i2c_data_out\[6\] 8.680e-03
*DRIVER i2c_master/data_out_reg_reg_6_:Q
*CELL fd1qd1_hd
*C2_R1_C1 4.340e-03 9.100e-03 4.340e-03 
*LOADS
*RC i2c_master/U447:C 7.899e-05
*RC U201:B 7.899e-05
*END

*R_NET w_i2c_data_out\[5\] 8.680e-03
*DRIVER i2c_master/data_out_reg_reg_5_:Q
*CELL fd1qd1_hd
*C2_R1_C1 4.340e-03 9.100e-03 4.340e-03 
*LOADS
*RC i2c_master/U448:C 7.899e-05
*RC U199:B 7.899e-05
*END

*R_NET w_i2c_data_out\[4\] 8.680e-03
*DRIVER i2c_master/data_out_reg_reg_4_:Q
*CELL fd1qd1_hd
*C2_R1_C1 4.340e-03 9.100e-03 4.340e-03 
*LOADS
*RC i2c_master/U450:C 7.899e-05
*RC U197:B 7.899e-05
*END

*R_NET w_i2c_data_out\[3\] 8.680e-03
*DRIVER i2c_master/data_out_reg_reg_3_:Q
*CELL fd1qd1_hd
*C2_R1_C1 4.340e-03 9.100e-03 4.340e-03 
*LOADS
*RC i2c_master/U453:C 7.899e-05
*RC U196:B 7.899e-05
*END

*R_NET w_i2c_data_out\[2\] 8.680e-03
*DRIVER i2c_master/data_out_reg_reg_2_:Q
*CELL fd1qd1_hd
*C2_R1_C1 4.340e-03 9.100e-03 4.340e-03 
*LOADS
*RC i2c_master/U454:C 7.899e-05
*RC U202:B 7.899e-05
*END

*R_NET w_i2c_data_out\[1\] 8.680e-03
*DRIVER i2c_master/data_out_reg_reg_1_:Q
*CELL fd1qd1_hd
*C2_R1_C1 4.340e-03 9.100e-03 4.340e-03 
*LOADS
*RC i2c_master/U451:C 7.899e-05
*RC U198:B 7.899e-05
*END

*R_NET w_i2c_data_out\[0\] 8.680e-03
*DRIVER i2c_master/data_out_reg_reg_0_:Q
*CELL fd1qd1_hd
*C2_R1_C1 4.340e-03 9.100e-03 4.340e-03 
*LOADS
*RC i2c_master/U452:C 7.899e-05
*RC U203:B 7.899e-05
*END

*R_NET w_i2c_data_out_valid 1.609e-02
*DRIVER i2c_master/data_out_valid_reg_reg:Q
*CELL fd1qd1_hd
*C2_R1_C1 8.045e-03 9.460e-03 8.045e-03 
*LOADS
*RC i2c_master/U616:A 1.522e-04
*RC i2c_master/U423:B 1.522e-04
*RC U176:C 1.522e-04
*END

*R_NET r_i2c_data_out_ready 2.031e-02
*DRIVER r_i2c_data_out_ready_reg:Q
*CELL fd2qd1_hd
*C2_R1_C1 1.015e-02 1.094e-02 1.015e-02 
*LOADS
*RC i2c_master/U318:A 2.222e-04
*RC U269:B 2.222e-04
*RC i2c_master/U443:C 2.222e-04
*RC i2c_master/U537:A 2.222e-04
*END

*R_NET r_pstate\[4\] 2.263e-02
*DRIVER r_pstate_reg_4_:Q
*CELL fd2qd1_hd
*C2_R1_C1 1.131e-02 1.094e-02 1.131e-02 
*LOADS
*RC U163:A 2.476e-04
*RC U226:C 2.476e-04
*RC U232:A 2.476e-04
*RC U245:B 2.476e-04
*END

*R_NET r_pstate\[1\] 2.680e-02
*DRIVER r_pstate_reg_1_:Q
*CELL fd2qd1_hd
*C2_R1_C1 1.340e-02 1.549e-02 1.340e-02 
*LOADS
*RC U159:A 4.151e-04
*RC U228:B 4.151e-04
*RC U229:A 4.151e-04
*RC U231:A 4.151e-04
*RC U238:A 4.151e-04
*END

*R_NET r_i2c_reg_addr\[7\] 9.700e-03
*DRIVER r_i2c_reg_addr_reg_7_:Q
*CELL fd1qd1_hd
*C2_R1_C1 4.850e-03 9.100e-03 4.850e-03 
*LOADS
*RC U278:D 8.827e-05
*RC U90:A 8.827e-05
*END

*R_NET r_i2c_reg_addr\[6\] 8.680e-03
*DRIVER r_i2c_reg_addr_reg_6_:Q
*CELL fd1qd1_hd
*C2_R1_C1 4.340e-03 9.100e-03 4.340e-03 
*LOADS
*RC U91:A 7.899e-05
*RC U277:D 7.899e-05
*END

*R_NET r_i2c_reg_addr\[5\] 8.680e-03
*DRIVER r_i2c_reg_addr_reg_5_:Q
*CELL fd1qd1_hd
*C2_R1_C1 4.340e-03 9.100e-03 4.340e-03 
*LOADS
*RC U92:A 7.899e-05
*RC U276:D 7.899e-05
*END

*R_NET r_i2c_reg_addr\[4\] 8.680e-03
*DRIVER r_i2c_reg_addr_reg_4_:Q
*CELL fd1qd1_hd
*C2_R1_C1 4.340e-03 9.100e-03 4.340e-03 
*LOADS
*RC U93:A 7.899e-05
*RC U275:D 7.899e-05
*END

*R_NET r_i2c_reg_addr\[3\] 8.680e-03
*DRIVER r_i2c_reg_addr_reg_3_:Q
*CELL fd1qd1_hd
*C2_R1_C1 4.340e-03 9.100e-03 4.340e-03 
*LOADS
*RC U94:A 7.899e-05
*RC U274:D 7.899e-05
*END

*R_NET r_i2c_reg_addr\[2\] 8.680e-03
*DRIVER r_i2c_reg_addr_reg_2_:Q
*CELL fd1qd1_hd
*C2_R1_C1 4.340e-03 9.100e-03 4.340e-03 
*LOADS
*RC U95:A 7.899e-05
*RC U273:D 7.899e-05
*END

*R_NET r_i2c_reg_addr\[1\] 8.680e-03
*DRIVER r_i2c_reg_addr_reg_1_:Q
*CELL fd1qd1_hd
*C2_R1_C1 4.340e-03 9.100e-03 4.340e-03 
*LOADS
*RC U96:A 7.899e-05
*RC U272:D 7.899e-05
*END

*R_NET r_i2c_reg_addr\[0\] 9.850e-03
*DRIVER r_i2c_reg_addr_reg_0_:Q
*CELL fd1qd1_hd
*C2_R1_C1 4.925e-03 9.100e-03 4.925e-03 
*LOADS
*RC U97:A 8.964e-05
*RC U261:D 8.964e-05
*END

*R_NET r_clk_counter\[8\] 1.018e-02
*DRIVER r_clk_counter_reg_8_:Q
*CELL fd2qd1_hd
*C2_R1_C1 5.090e-03 9.100e-03 5.090e-03 
*LOADS
*RC U242:D 9.264e-05
*RC U298:A 9.264e-05
*END

*R_NET r_clk_counter\[7\] 1.640e-02
*DRIVER r_clk_counter_reg_7_:Q
*CELL fd2qd1_hd
*C2_R1_C1 8.200e-03 9.460e-03 8.200e-03 
*LOADS
*RC U216:A 1.551e-04
*RC U242:C 1.551e-04
*RC U304:A 1.551e-04
*END

*R_NET r_clk_counter\[6\] 1.582e-02
*DRIVER r_clk_counter_reg_6_:Q
*CELL fd2qd1_hd
*C2_R1_C1 7.910e-03 9.460e-03 7.910e-03 
*LOADS
*RC U168:A 1.497e-04
*RC U242:A 1.497e-04
*RC U305:A 1.497e-04
*END

*R_NET r_clk_counter\[5\] 2.107e-02
*DRIVER r_clk_counter_reg_5_:Q
*CELL fd2qd1_hd
*C2_R1_C1 1.053e-02 1.094e-02 1.053e-02 
*LOADS
*RC U200:A 2.305e-04
*RC U205:A 2.305e-04
*RC U242:B 2.305e-04
*RC U306:A 2.305e-04
*END

*R_NET r_clk_counter\[4\] 5.220e-03
*DRIVER r_clk_counter_reg_4_:Q
*CELL fd2qd1_hd
*C2_R1_C1 2.610e-03 7.370e-03 2.610e-03 
*LOADS
*RC U222:A 3.847e-05
*END

*R_NET r_clk_counter\[3\] 2.116e-02
*DRIVER r_clk_counter_reg_3_:Q
*CELL fd2qd1_hd
*C2_R1_C1 1.058e-02 1.094e-02 1.058e-02 
*LOADS
*RC U172:A 2.315e-04
*RC U195:A 2.315e-04
*RC U240:A 2.315e-04
*RC U310:A 2.315e-04
*END

*R_NET r_clk_counter\[2\] 1.001e-02
*DRIVER r_clk_counter_reg_2_:Q
*CELL fd2qd1_hd
*C2_R1_C1 5.005e-03 9.100e-03 5.005e-03 
*LOADS
*RC U219:A 9.109e-05
*RC U241:C 9.109e-05
*END

*R_NET r_clk_counter\[1\] 2.180e-02
*DRIVER r_clk_counter_reg_1_:Q
*CELL fd2qd1_hd
*C2_R1_C1 1.090e-02 1.094e-02 1.090e-02 
*LOADS
*RC U170:B 2.385e-04
*RC U194:C 2.385e-04
*RC U241:B 2.385e-04
*RC U314:A 2.385e-04
*END

*R_NET r_clk_counter\[0\] 2.148e-02
*DRIVER r_clk_counter_reg_0_:Q
*CELL fd2qd1_hd
*C2_R1_C1 1.074e-02 1.094e-02 1.074e-02 
*LOADS
*RC U170:A 2.350e-04
*RC U194:A 2.350e-04
*RC U220:A 2.350e-04
*RC U241:A 2.350e-04
*END

*R_NET r_lstate_0_ 1.005e-02
*DRIVER r_lstate_reg_0_:Q
*CELL fd2qd1_hd
*C2_R1_C1 5.025e-03 9.100e-03 5.025e-03 
*LOADS
*RC U181:A 9.146e-05
*RC U263:B 9.146e-05
*END

*R_NET r_i2c_reg_data_in\[7\] 8.660e-03
*DRIVER r_i2c_reg_data_in_reg_7_:Q
*CELL fd1qd1_hd
*C2_R1_C1 4.330e-03 9.100e-03 4.330e-03 
*LOADS
*RC U76:A 7.881e-05
*RC U278:E 7.881e-05
*END

*R_NET r_i2c_reg_data_in\[6\] 9.680e-03
*DRIVER r_i2c_reg_data_in_reg_6_:Q
*CELL fd1qd1_hd
*C2_R1_C1 4.840e-03 9.100e-03 4.840e-03 
*LOADS
*RC U277:E 8.809e-05
*RC U78:A 8.809e-05
*END

*R_NET r_i2c_reg_data_in\[5\] 9.680e-03
*DRIVER r_i2c_reg_data_in_reg_5_:Q
*CELL fd1qd1_hd
*C2_R1_C1 4.840e-03 9.100e-03 4.840e-03 
*LOADS
*RC U276:E 8.809e-05
*RC U80:A 8.809e-05
*END

*R_NET r_i2c_reg_data_in\[4\] 8.660e-03
*DRIVER r_i2c_reg_data_in_reg_4_:Q
*CELL fd1qd1_hd
*C2_R1_C1 4.330e-03 9.100e-03 4.330e-03 
*LOADS
*RC U81:A 7.881e-05
*RC U275:E 7.881e-05
*END

*R_NET r_i2c_reg_data_in\[3\] 8.660e-03
*DRIVER r_i2c_reg_data_in_reg_3_:Q
*CELL fd1qd1_hd
*C2_R1_C1 4.330e-03 9.100e-03 4.330e-03 
*LOADS
*RC U82:A 7.881e-05
*RC U274:E 7.881e-05
*END

*R_NET r_i2c_reg_data_in\[2\] 8.660e-03
*DRIVER r_i2c_reg_data_in_reg_2_:Q
*CELL fd1qd1_hd
*C2_R1_C1 4.330e-03 9.100e-03 4.330e-03 
*LOADS
*RC U83:A 7.881e-05
*RC U273:E 7.881e-05
*END

*R_NET r_i2c_reg_data_in\[1\] 9.680e-03
*DRIVER r_i2c_reg_data_in_reg_1_:Q
*CELL fd1qd1_hd
*C2_R1_C1 4.840e-03 9.100e-03 4.840e-03 
*LOADS
*RC U272:E 8.809e-05
*RC U85:A 8.809e-05
*END

*R_NET r_i2c_reg_data_in\[0\] 1.077e-02
*DRIVER r_i2c_reg_data_in_reg_0_:Q
*CELL fd1qd1_hd
*C2_R1_C1 5.385e-03 9.100e-03 5.385e-03 
*LOADS
*RC U261:B 9.801e-05
*RC U87:A 9.801e-05
*END

*R_NET N270 4.680e-03
*DRIVER U255:Y
*CELL nd4d1_hd
*C2_R1_C1 2.340e-03 7.370e-03 2.340e-03 
*LOADS
*RC r_pstate_reg_1_:D 3.449e-05
*END

*R_NET N273 4.680e-03
*DRIVER U260:Y
*CELL oa211d1_hd
*C2_R1_C1 2.340e-03 7.370e-03 2.340e-03 
*LOADS
*RC r_pstate_reg_4_:D 3.449e-05
*END

*R_NET n4 4.680e-03
*DRIVER U302:Y
*CELL oa22d1_hd
*C2_R1_C1 2.340e-03 7.370e-03 2.340e-03 
*LOADS
*RC r_clk_counter_reg_8_:D 3.449e-05
*END

*R_NET n5 4.680e-03
*DRIVER U304:Y
*CELL ao22d1_hd
*C2_R1_C1 2.340e-03 7.370e-03 2.340e-03 
*LOADS
*RC r_clk_counter_reg_7_:D 3.449e-05
*END

*R_NET n6 4.680e-03
*DRIVER U309:Y
*CELL oa22d1_hd
*C2_R1_C1 2.340e-03 7.370e-03 2.340e-03 
*LOADS
*RC r_clk_counter_reg_6_:D 3.449e-05
*END

*R_NET n7 4.680e-03
*DRIVER U200:Y
*CELL scg2d1_hd
*C2_R1_C1 2.340e-03 7.370e-03 2.340e-03 
*LOADS
*RC r_clk_counter_reg_5_:D 3.449e-05
*END

*R_NET n8 4.680e-03
*DRIVER U313:Y
*CELL oa22d1_hd
*C2_R1_C1 2.340e-03 7.370e-03 2.340e-03 
*LOADS
*RC r_clk_counter_reg_4_:D 3.449e-05
*END

*R_NET n9 4.680e-03
*DRIVER U195:Y
*CELL scg2d1_hd
*C2_R1_C1 2.340e-03 7.370e-03 2.340e-03 
*LOADS
*RC r_clk_counter_reg_3_:D 3.449e-05
*END

*R_NET n10 4.680e-03
*DRIVER U316:Y
*CELL oa22d1_hd
*C2_R1_C1 2.340e-03 7.370e-03 2.340e-03 
*LOADS
*RC r_clk_counter_reg_2_:D 3.449e-05
*END

*R_NET n11 4.680e-03
*DRIVER U194:Y
*CELL scg2d1_hd
*C2_R1_C1 2.340e-03 7.370e-03 2.340e-03 
*LOADS
*RC r_clk_counter_reg_1_:D 3.449e-05
*END

*R_NET n12 4.680e-03
*DRIVER U317:Y
*CELL oa21d1_hd
*C2_R1_C1 2.340e-03 7.370e-03 2.340e-03 
*LOADS
*RC r_clk_counter_reg_0_:D 3.449e-05
*END

*R_NET n13 9.470e-03
*DRIVER U257:Y
*CELL scg20d1_hd
*C2_R1_C1 4.735e-03 9.100e-03 4.735e-03 
*LOADS
*RC r_pstate_reg_3_:D 8.618e-05
*RC U258:C 8.618e-05
*END

*R_NET n15 4.610e-03
*DRIVER U297:Y
*CELL scg20d1_hd
*C2_R1_C1 2.305e-03 7.370e-03 2.305e-03 
*LOADS
*RC r_lstate_reg_1_:D 3.398e-05
*END

*R_NET n16 4.610e-03
*DRIVER U296:Y
*CELL nr4d1_hd
*C2_R1_C1 2.305e-03 7.370e-03 2.305e-03 
*LOADS
*RC r_pstate_reg_0_:D 3.398e-05
*END

*R_NET n17 2.663e-02
*DRIVER r_pstate_reg_0_:Q
*CELL fd3d1_hd
*C2_R1_C1 1.331e-02 1.549e-02 1.331e-02 
*LOADS
*RC U225:A 4.125e-04
*RC U248:B 4.125e-04
*RC U250:A 4.125e-04
*RC U252:C 4.125e-04
*RC U285:A 4.125e-04
*END

*R_NET n18 4.610e-03
*DRIVER U294:Y
*CELL ao211d1_hd
*C2_R1_C1 2.305e-03 7.370e-03 2.305e-03 
*LOADS
*RC r_pstate_reg_5_:D 3.398e-05
*END

*R_NET n19 4.610e-03
*DRIVER U292:Y
*CELL nr3d1_hd
*C2_R1_C1 2.305e-03 7.370e-03 2.305e-03 
*LOADS
*RC r_pstate_reg_2_:D 3.398e-05
*END

*R_NET n20 1.107e-02
*DRIVER r_pstate_reg_2_:Q
*CELL fd3d1_hd
*C2_R1_C1 5.535e-03 9.100e-03 5.535e-03 
*LOADS
*RC U231:B 1.007e-04
*RC U294:B 1.007e-04
*END

*R_NET n24 9.290e-03
*DRIVER r_lstate_reg_1_:Q
*CELL fd3d1_hd
*C2_R1_C1 4.645e-03 9.100e-03 4.645e-03 
*LOADS
*RC U181:B 8.454e-05
*RC U297:B 8.454e-05
*END

*R_NET n28 2.226e-02
*DRIVER U225:Y
*CELL nr2d1_hd
*C2_R1_C1 1.113e-02 1.094e-02 1.113e-02 
*LOADS
*RC U180:A 2.435e-04
*RC U99:B 2.435e-04
*RC U259:C 2.435e-04
*RC U264:AN 2.435e-04
*END

*R_NET n30 3.519e-02
*DRIVER U178:Y
*CELL nd3d1_hd
*C2_R1_C1 1.760e-02 1.674e-02 1.760e-02 
*LOADS
*RC U182:A 5.891e-04
*RC U212:A 5.891e-04
*RC U263:A 5.891e-04
*RC U286:C 5.891e-04
*RC U287:D 5.891e-04
*RC U293:B 5.891e-04
*END

*R_NET n65 2.297e-02
*DRIVER U212:Y
*CELL ivd1_hd
*C2_R1_C1 1.148e-02 1.094e-02 1.148e-02 
*LOADS
*RC U183:B 2.513e-04
*RC U99:A 2.513e-04
*RC U238:C 2.513e-04
*RC U297:C 2.513e-04
*END

*R_NET n67 7.118e-02
*DRIVER U99:Y
*CELL oa21d1_hd
*C2_R1_C1 3.559e-02 2.261e-02 3.559e-02 
*LOADS
*RC U83:B 1.609e-03
*RC U97:B 1.609e-03
*RC U81:B 1.609e-03
*RC U96:B 1.609e-03
*RC U82:B 1.609e-03
*RC U95:B 1.609e-03
*RC U76:B 1.609e-03
*RC U94:B 1.609e-03
*RC U93:B 1.609e-03
*RC U92:B 1.609e-03
*RC U91:B 1.609e-03
*RC U90:B 1.609e-03
*RC U87:B 1.609e-03
*RC U85:B 1.609e-03
*RC U80:B 1.609e-03
*RC U78:B 1.609e-03
*END

*R_NET n68 7.023e-02
*DRIVER U182:Y
*CELL nr2ad1_hd
*C2_R1_C1 3.511e-02 2.261e-02 3.511e-02 
*LOADS
*RC U83:C 1.588e-03
*RC U97:C 1.588e-03
*RC U81:C 1.588e-03
*RC U96:C 1.588e-03
*RC U82:C 1.588e-03
*RC U95:C 1.588e-03
*RC U76:C 1.588e-03
*RC U94:C 1.588e-03
*RC U93:C 1.588e-03
*RC U92:C 1.588e-03
*RC U91:C 1.588e-03
*RC U90:C 1.588e-03
*RC U87:C 1.588e-03
*RC U85:C 1.588e-03
*RC U80:C 1.588e-03
*RC U78:C 1.588e-03
*END

*R_NET n69 5.200e-03
*DRIVER U78:Y
*CELL ao22d1_hd
*C2_R1_C1 2.600e-03 7.370e-03 2.600e-03 
*LOADS
*RC U191:A 3.832e-05
*END

*R_NET n70 2.542e-02
*DRIVER U180:Y
*CELL clknd2d1_hd
*C2_R1_C1 1.271e-02 1.549e-02 1.271e-02 
*LOADS
*RC U187:B 3.938e-04
*RC U188:B 3.938e-04
*RC U189:B 3.938e-04
*RC U190:B 3.938e-04
*RC U191:B 3.938e-04
*END

*R_NET n71 5.200e-03
*DRIVER U80:Y
*CELL ao22d1_hd
*C2_R1_C1 2.600e-03 7.370e-03 2.600e-03 
*LOADS
*RC U190:A 3.832e-05
*END

*R_NET n72 5.200e-03
*DRIVER U85:Y
*CELL ao22d1_hd
*C2_R1_C1 2.600e-03 7.370e-03 2.600e-03 
*LOADS
*RC U189:A 3.832e-05
*END

*R_NET n73 5.200e-03
*DRIVER U87:Y
*CELL ao22d1_hd
*C2_R1_C1 2.600e-03 7.370e-03 2.600e-03 
*LOADS
*RC U187:A 3.832e-05
*END

*R_NET n74 5.200e-03
*DRIVER U90:Y
*CELL ao22d1_hd
*C2_R1_C1 2.600e-03 7.370e-03 2.600e-03 
*LOADS
*RC U188:A 3.832e-05
*END

*R_NET n101 4.680e-03
*DRIVER U193:Y
*CELL mx2d1_hd
*C2_R1_C1 2.340e-03 7.370e-03 2.340e-03 
*LOADS
*RC r_i2c_data_in_valid_reg:D 3.449e-05
*END

*R_NET n102 4.680e-03
*DRIVER U287:Y
*CELL oa22d1_hd