*SPEF "IEEE 1481-1999"
*DESIGN "mpr121_controller"
*DATE "Wed May 13 09:56:54 2020"
*VENDOR "SYNOPSYS INC"
*PROGRAM "Synopsys Design Compiler cmos"
*VERSION "F-2011.09-SP5-3"
*DESIGN_FLOW "SYNTHESIS"
*DIVIDER /
*DELIMITER :
*BUS_DELIMITER []
*T_UNIT 1.0 NS
*C_UNIT 1.0 PF
*R_UNIT 1.0 KOHM
*L_UNIT 1.0 HENRY

*PORTS

o_MPR121_DATA_OUT\[7\] O *L 0.000e+00 *S 6.972e-02 1.016e-01 
o_MPR121_DATA_OUT\[6\] O *L 0.000e+00 *S 6.972e-02 1.016e-01 
o_MPR121_DATA_OUT\[5\] O *L 0.000e+00 *S 6.972e-02 1.016e-01 
o_MPR121_DATA_OUT\[4\] O *L 0.000e+00 *S 6.972e-02 1.016e-01 
o_MPR121_DATA_OUT\[3\] O *L 0.000e+00 *S 6.972e-02 1.016e-01 
o_MPR121_DATA_OUT\[2\] O *L 0.000e+00 *S 6.972e-02 1.016e-01 
o_MPR121_DATA_OUT\[1\] O *L 0.000e+00 *S 6.972e-02 1.016e-01 
o_MPR121_DATA_OUT\[0\] O *L 0.000e+00 *S 6.972e-02 1.016e-01 
o_MPR121_REG_ADDR\[7\] I *L 0.000e+00 *S 0.000e+00 0.000e+00 
o_MPR121_REG_ADDR\[6\] I *L 0.000e+00 *S 0.000e+00 0.000e+00 
o_MPR121_REG_ADDR\[5\] I *L 0.000e+00 *S 0.000e+00 0.000e+00 
o_MPR121_REG_ADDR\[4\] I *L 0.000e+00 *S 0.000e+00 0.000e+00 
o_MPR121_REG_ADDR\[3\] I *L 0.000e+00 *S 0.000e+00 0.000e+00 
o_MPR121_REG_ADDR\[2\] I *L 0.000e+00 *S 0.000e+00 0.000e+00 
o_MPR121_REG_ADDR\[1\] I *L 0.000e+00 *S 0.000e+00 0.000e+00 
o_MPR121_REG_ADDR\[0\] I *L 0.000e+00 *S 0.000e+00 0.000e+00 
i_MPR121_DATA_IN\[7\] I *L 0.000e+00 *S 0.000e+00 0.000e+00 
i_MPR121_DATA_IN\[6\] I *L 0.000e+00 *S 0.000e+00 0.000e+00 
i_MPR121_DATA_IN\[5\] I *L 0.000e+00 *S 0.000e+00 0.000e+00 
i_MPR121_DATA_IN\[4\] I *L 0.000e+00 *S 0.000e+00 0.000e+00 
i_MPR121_DATA_IN\[3\] I *L 0.000e+00 *S 0.000e+00 0.000e+00 
i_MPR121_DATA_IN\[2\] I *L 0.000e+00 *S 0.000e+00 0.000e+00 
i_MPR121_DATA_IN\[1\] I *L 0.000e+00 *S 0.000e+00 0.000e+00 
i_MPR121_DATA_IN\[0\] I *L 0.000e+00 *S 0.000e+00 0.000e+00 
i_MPR121_WRITE_ENABLE I *L 0.000e+00 *S 0.000e+00 0.000e+00 
i_MPR121_READ_ENABLE I *L 0.000e+00 *S 0.000e+00 0.000e+00 
o_MPR121_INIT_SET O *L 0.000e+00 *S 7.421e-02 1.073e-01 
o_MPR121_BUSY O *L 0.000e+00 *S 7.800e-02 1.120e-01 
o_MPR121_FAIL O *L 0.000e+00 *S 3.342e-02 3.328e-02 
i_I2C_SCL_IN I *L 0.000e+00 *S 0.000e+00 0.000e+00 
i_I2C_SDA_IN I *L 0.000e+00 *S 0.000e+00 0.000e+00 
o_I2C_SCL_OUT O *L 0.000e+00 *S 1.707e-01 1.412e-01 
o_I2C_SDA_OUT O *L 0.000e+00 *S 7.447e-02 6.984e-02 
o_I2C_SCL_EN O *L 0.000e+00 *S 2.860e-02 2.275e-02 
o_I2C_SDA_EN O *L 0.000e+00 *S 1.323e-01 8.875e-02 
i_CLK I *L 0.000e+00 *S 0.000e+00 0.000e+00 
i_RSTN I *L 0.000e+00 *S 0.000e+00 0.000e+00 

*R_NET o_MPR121_DATA_OUT\[7\] 7.050e-03
*DRIVER o_MPR121_DATA_OUT_reg_7_:Q
*CELL fd2qd1_hd
*C2_R1_C1 3.525e-03 9.100e-03 3.525e-03 
*LOADS
*RC U212:C 6.416e-05
*RC o_MPR121_DATA_OUT\[7\] 6.416e-05
*END

*R_NET o_MPR121_DATA_OUT\[6\] 7.050e-03
*DRIVER o_MPR121_DATA_OUT_reg_6_:Q
*CELL fd2qd1_hd
*C2_R1_C1 3.525e-03 9.100e-03 3.525e-03 
*LOADS
*RC U211:C 6.416e-05
*RC o_MPR121_DATA_OUT\[6\] 6.416e-05
*END

*R_NET o_MPR121_DATA_OUT\[5\] 7.050e-03
*DRIVER o_MPR121_DATA_OUT_reg_5_:Q
*CELL fd2qd1_hd
*C2_R1_C1 3.525e-03 9.100e-03 3.525e-03 
*LOADS
*RC U210:C 6.416e-05
*RC o_MPR121_DATA_OUT\[5\] 6.416e-05
*END

*R_NET o_MPR121_DATA_OUT\[4\] 7.050e-03
*DRIVER o_MPR121_DATA_OUT_reg_4_:Q
*CELL fd2qd1_hd
*C2_R1_C1 3.525e-03 9.100e-03 3.525e-03 
*LOADS
*RC U213:C 6.416e-05
*RC o_MPR121_DATA_OUT\[4\] 6.416e-05
*END

*R_NET o_MPR121_DATA_OUT\[3\] 7.050e-03
*DRIVER o_MPR121_DATA_OUT_reg_3_:Q
*CELL fd2qd1_hd
*C2_R1_C1 3.525e-03 9.100e-03 3.525e-03 
*LOADS
*RC U215:C 6.416e-05
*RC o_MPR121_DATA_OUT\[3\] 6.416e-05
*END

*R_NET o_MPR121_DATA_OUT\[2\] 7.050e-03
*DRIVER o_MPR121_DATA_OUT_reg_2_:Q
*CELL fd2qd1_hd
*C2_R1_C1 3.525e-03 9.100e-03 3.525e-03 
*LOADS
*RC U216:C 6.416e-05
*RC o_MPR121_DATA_OUT\[2\] 6.416e-05
*END

*R_NET o_MPR121_DATA_OUT\[1\] 7.050e-03
*DRIVER o_MPR121_DATA_OUT_reg_1_:Q
*CELL fd2qd1_hd
*C2_R1_C1 3.525e-03 9.100e-03 3.525e-03 
*LOADS
*RC U209:C 6.416e-05
*RC o_MPR121_DATA_OUT\[1\] 6.416e-05
*END

*R_NET o_MPR121_DATA_OUT\[0\] 7.050e-03
*DRIVER o_MPR121_DATA_OUT_reg_0_:Q
*CELL fd2qd1_hd
*C2_R1_C1 3.525e-03 9.100e-03 3.525e-03 
*LOADS
*RC U214:C 6.416e-05
*RC o_MPR121_DATA_OUT\[0\] 6.416e-05
*END

*R_NET o_MPR121_REG_ADDR\[7\] 5.900e-03
*DRIVER o_MPR121_REG_ADDR\[7\]
*CELL NULL
*C2_R1_C1 2.950e-03 7.370e-03 2.950e-03 
*LOADS
*RC U111:D 4.348e-05
*END

*R_NET o_MPR121_REG_ADDR\[6\] 4.670e-03
*DRIVER o_MPR121_REG_ADDR\[6\]
*CELL NULL
*C2_R1_C1 2.335e-03 7.370e-03 2.335e-03 
*LOADS
*RC U112:D 3.442e-05
*END

*R_NET o_MPR121_REG_ADDR\[5\] 4.670e-03
*DRIVER o_MPR121_REG_ADDR\[5\]
*CELL NULL
*C2_R1_C1 2.335e-03 7.370e-03 2.335e-03 
*LOADS
*RC U113:D 3.442e-05
*END

*R_NET o_MPR121_REG_ADDR\[4\] 4.670e-03
*DRIVER o_MPR121_REG_ADDR\[4\]
*CELL NULL
*C2_R1_C1 2.335e-03 7.370e-03 2.335e-03 
*LOADS
*RC U114:D 3.442e-05
*END

*R_NET o_MPR121_REG_ADDR\[3\] 4.670e-03
*DRIVER o_MPR121_REG_ADDR\[3\]
*CELL NULL
*C2_R1_C1 2.335e-03 7.370e-03 2.335e-03 
*LOADS
*RC U115:D 3.442e-05
*END

*R_NET o_MPR121_REG_ADDR\[2\] 4.670e-03
*DRIVER o_MPR121_REG_ADDR\[2\]
*CELL NULL
*C2_R1_C1 2.335e-03 7.370e-03 2.335e-03 
*LOADS
*RC U116:D 3.442e-05
*END

*R_NET o_MPR121_REG_ADDR\[1\] 4.670e-03
*DRIVER o_MPR121_REG_ADDR\[1\]
*CELL NULL
*C2_R1_C1 2.335e-03 7.370e-03 2.335e-03 
*LOADS
*RC U117:D 3.442e-05
*END

*R_NET o_MPR121_REG_ADDR\[0\] 4.670e-03
*DRIVER o_MPR121_REG_ADDR\[0\]
*CELL NULL
*C2_R1_C1 2.335e-03 7.370e-03 2.335e-03 
*LOADS
*RC U118:D 3.442e-05
*END

*R_NET i_MPR121_DATA_IN\[7\] 4.670e-03
*DRIVER i_MPR121_DATA_IN\[7\]
*CELL NULL
*C2_R1_C1 2.335e-03 7.370e-03 2.335e-03 
*LOADS
*RC U84:D 3.442e-05
*END

*R_NET i_MPR121_DATA_IN\[6\] 5.900e-03
*DRIVER i_MPR121_DATA_IN\[6\]
*CELL NULL
*C2_R1_C1 2.950e-03 7.370e-03 2.950e-03 
*LOADS
*RC U83:D 4.348e-05
*END

*R_NET i_MPR121_DATA_IN\[5\] 5.900e-03
*DRIVER i_MPR121_DATA_IN\[5\]
*CELL NULL
*C2_R1_C1 2.950e-03 7.370e-03 2.950e-03 
*LOADS
*RC U81:D 4.348e-05
*END

*R_NET i_MPR121_DATA_IN\[4\] 4.670e-03
*DRIVER i_MPR121_DATA_IN\[4\]
*CELL NULL
*C2_R1_C1 2.335e-03 7.370e-03 2.335e-03 
*LOADS
*RC U79:D 3.442e-05
*END

*R_NET i_MPR121_DATA_IN\[3\] 4.670e-03
*DRIVER i_MPR121_DATA_IN\[3\]
*CELL NULL
*C2_R1_C1 2.335e-03 7.370e-03 2.335e-03 
*LOADS
*RC U78:D 3.442e-05
*END

*R_NET i_MPR121_DATA_IN\[2\] 4.670e-03
*DRIVER i_MPR121_DATA_IN\[2\]
*CELL NULL
*C2_R1_C1 2.335e-03 7.370e-03 2.335e-03 
*LOADS
*RC U77:D 3.442e-05
*END

*R_NET i_MPR121_DATA_IN\[1\] 5.900e-03
*DRIVER i_MPR121_DATA_IN\[1\]
*CELL NULL
*C2_R1_C1 2.950e-03 7.370e-03 2.950e-03 
*LOADS
*RC U76:D 4.348e-05
*END

*R_NET i_MPR121_DATA_IN\[0\] 5.900e-03
*DRIVER i_MPR121_DATA_IN\[0\]
*CELL NULL
*C2_R1_C1 2.950e-03 7.370e-03 2.950e-03 
*LOADS
*RC U74:D 4.348e-05
*END

*R_NET i_MPR121_WRITE_ENABLE 2.285e-02
*DRIVER i_MPR121_WRITE_ENABLE
*CELL NULL
*C2_R1_C1 1.142e-02 1.094e-02 1.142e-02 
*LOADS
*RC U252:A 2.500e-04
*RC U259:A 2.500e-04
*RC U269:AN 2.500e-04
*RC U303:A 2.500e-04
*END

*R_NET i_MPR121_READ_ENABLE 1.594e-02
*DRIVER i_MPR121_READ_ENABLE
*CELL NULL
*C2_R1_C1 7.970e-03 9.460e-03 7.970e-03 
*LOADS
*RC U259:B 1.508e-04
*RC U268:AN 1.508e-04
*RC U269:C 1.508e-04
*END

*R_NET o_MPR121_INIT_SET 7.560e-03
*DRIVER o_MPR121_INIT_SET_reg:Q
*CELL fd2qd1_hd
*C2_R1_C1 3.780e-03 9.100e-03 3.780e-03 
*LOADS
*RC U203:B 6.880e-05
*RC o_MPR121_INIT_SET 6.880e-05
*END

*R_NET o_MPR121_BUSY 7.990e-03
*DRIVER o_MPR121_BUSY_reg:Q
*CELL fd2qd1_hd
*C2_R1_C1 3.995e-03 9.100e-03 3.995e-03 
*LOADS
*RC U278:A 7.271e-05
*RC o_MPR121_BUSY 7.271e-05
*END

*R_NET o_MPR121_FAIL 3.150e-03
*DRIVER i2c_master/missed_ack_reg_reg:Q
*CELL fd1qd1_hd
*C2_R1_C1 1.575e-03 7.370e-03 1.575e-03 
*LOADS
*RC o_MPR121_FAIL 2.322e-05
*END

*R_NET i_I2C_SCL_IN 4.680e-03
*DRIVER i_I2C_SCL_IN
*CELL NULL
*C2_R1_C1 2.340e-03 7.370e-03 2.340e-03 
*LOADS
*RC i2c_master/scl_i_reg_reg:D 3.449e-05
*END

*R_NET i_I2C_SDA_IN 4.680e-03
*DRIVER i_I2C_SDA_IN
*CELL NULL
*C2_R1_C1 2.340e-03 7.370e-03 2.340e-03 
*LOADS
*RC i2c_master/sda_i_reg_reg:D 3.449e-05
*END

*R_NET o_I2C_SCL_OUT 1.911e-02
*DRIVER i2c_master/scl_o_reg_reg:Q
*CELL fd1qd1_hd
*C2_R1_C1 9.555e-03 1.094e-02 9.555e-03 
*LOADS
*RC i2c_master/U592:C 2.091e-04
*RC i2c_master/U446:A 2.091e-04
*RC i2c_master/U194:A 2.091e-04
*RC o_I2C_SCL_OUT 2.091e-04
*END

*R_NET o_I2C_SDA_OUT 7.590e-03
*DRIVER i2c_master/sda_o_reg_reg:Q
*CELL fd1qd1_hd
*C2_R1_C1 3.795e-03 9.100e-03 3.795e-03 
*LOADS
*RC i2c_master/U464:A 6.907e-05
*RC o_I2C_SDA_OUT 6.907e-05
*END

*R_NET o_I2C_SCL_EN 3.150e-03
*DRIVER i2c_master/U446:Y
*CELL nid1_hd
*C2_R1_C1 1.575e-03 7.370e-03 1.575e-03 
*LOADS
*RC o_I2C_SCL_EN 2.322e-05
*END

*R_NET o_I2C_SDA_EN 1.481e-02
*DRIVER i2c_master/U464:Y
*CELL ivd1_hd
*C2_R1_C1 7.405e-03 9.460e-03 7.405e-03 
*LOADS
*RC i2c_master/U589:B 1.401e-04
*RC i2c_master/U206:B 1.401e-04
*RC o_I2C_SDA_EN 1.401e-04
*END

*R_NET i_CLK 4.044e-01
*DRIVER i_CLK
*CELL NULL
*C2_R1_C1 2.022e-01 7.031e-02 2.022e-01 
*LOADS
*RC r_pstate_reg_0_:CK 2.843e-02
*RC r_i2c_data_in_last_reg:CK 2.843e-02
*RC r_i2c_start_reg:CK 2.843e-02
*RC r_pstate_reg_5_:CK 2.843e-02
*RC r_pstate_reg_3_:CK 2.843e-02
*RC o_MPR121_BUSY_reg:CK 2.843e-02
*RC r_i2c_write_multiple_reg:CK 2.843e-02
*RC r_i2c_read_reg:CK 2.843e-02
*RC r_i2c_write_reg:CK 2.843e-02
*RC r_i2c_data_out_ready_reg:CK 2.843e-02
*RC r_i2c_cmd_valid_reg:CK 2.843e-02
*RC o_MPR121_INIT_SET_reg:CK 2.843e-02
*RC r_pstate_reg_1_:CK 2.843e-02
*RC o_MPR121_DATA_OUT_reg_7_:CK 2.843e-02
*RC o_MPR121_DATA_OUT_reg_6_:CK 2.843e-02
*RC o_MPR121_DATA_OUT_reg_5_:CK 2.843e-02
*RC o_MPR121_DATA_OUT_reg_4_:CK 2.843e-02
*RC o_MPR121_DATA_OUT_reg_3_:CK 2.843e-02
*RC o_MPR121_DATA_OUT_reg_2_:CK 2.843e-02
*RC o_MPR121_DATA_OUT_reg_1_:CK 2.843e-02
*RC o_MPR121_DATA_OUT_reg_0_:CK 2.843e-02
*RC r_i2c_data_in_valid_reg:CK 2.843e-02
*RC r_clk_counter_reg_7_:CK 2.843e-02
*RC r_clk_counter_reg_8_:CK 2.843e-02
*RC r_clk_counter_reg_5_:CK 2.843e-02
*RC r_clk_counter_reg_3_:CK 2.843e-02
*RC r_clk_counter_reg_0_:CK 2.843e-02
*RC r_clk_counter_reg_4_:CK 2.843e-02
*RC r_clk_counter_reg_6_:CK 2.843e-02
*RC r_i2c_data_in_reg_6_:CK 2.843e-02
*RC r_i2c_data_in_reg_5_:CK 2.843e-02
*RC r_i2c_data_in_reg_4_:CK 2.843e-02
*RC r_i2c_data_in_reg_3_:CK 2.843e-02
*RC r_i2c_data_in_reg_2_:CK 2.843e-02
*RC r_i2c_data_in_reg_1_:CK 2.843e-02
*RC r_i2c_data_in_reg_0_:CK 2.843e-02
*RC r_i2c_data_in_reg_7_:CK 2.843e-02
*RC r_clk_counter_reg_1_:CK 2.843e-02
*RC r_clk_counter_reg_2_:CK 2.843e-02
*RC r_i2c_reg_data_in_reg_6_:CK 2.843e-02
*RC r_i2c_reg_data_in_reg_5_:CK 2.843e-02
*RC r_i2c_reg_data_in_reg_1_:CK 2.843e-02
*RC r_i2c_reg_data_in_reg_0_:CK 2.843e-02
*RC r_i2c_reg_addr_reg_7_:CK 2.843e-02
*RC r_i2c_reg_data_in_reg_7_:CK 2.843e-02
*RC r_i2c_reg_data_in_reg_4_:CK 2.843e-02
*RC r_i2c_reg_data_in_reg_3_:CK 2.843e-02
*RC r_i2c_reg_data_in_reg_2_:CK 2.843e-02
*RC r_i2c_reg_addr_reg_6_:CK 2.843e-02
*RC r_i2c_reg_addr_reg_5_:CK 2.843e-02
*RC r_i2c_reg_addr_reg_4_:CK 2.843e-02
*RC r_i2c_reg_addr_reg_3_:CK 2.843e-02
*RC r_i2c_reg_addr_reg_2_:CK 2.843e-02
*RC r_i2c_reg_addr_reg_1_:CK 2.843e-02
*RC r_i2c_reg_addr_reg_0_:CK 2.843e-02
*RC r_pstate_reg_4_:CK 2.843e-02
*RC r_lstate_reg_1_:CK 2.843e-02
*RC r_pstate_reg_2_:CK 2.843e-02
*RC r_lstate_reg_0_:CK 2.843e-02
*RC i2c_master/phy_rx_data_reg_reg:CK 2.843e-02
*RC i2c_master/sda_i_reg_reg:CK 2.843e-02
*RC i2c_master/delay_reg_reg_2_:CK 2.843e-02
*RC i2c_master/delay_reg_reg_1_:CK 2.843e-02
*RC i2c_master/delay_reg_reg_0_:CK 2.843e-02
*RC i2c_master/delay_reg_reg_5_:CK 2.843e-02
*RC i2c_master/delay_reg_reg_4_:CK 2.843e-02
*RC i2c_master/delay_reg_reg_6_:CK 2.843e-02
*RC i2c_master/delay_reg_reg_3_:CK 2.843e-02
*RC i2c_master/delay_reg_reg_9_:CK 2.843e-02
*RC i2c_master/delay_reg_reg_7_:CK 2.843e-02
*RC i2c_master/delay_reg_reg_10_:CK 2.843e-02
*RC i2c_master/delay_reg_reg_8_:CK 2.843e-02
*RC i2c_master/bit_count_reg_reg_2_:CK 2.843e-02
*RC i2c_master/state_reg_reg_3_:CK 2.843e-02
*RC i2c_master/state_reg_reg_2_:CK 2.843e-02
*RC i2c_master/state_reg_reg_1_:CK 2.843e-02
*RC i2c_master/cmd_ready_reg_reg:CK 2.843e-02
*RC i2c_master/delay_reg_reg_13_:CK 2.843e-02
*RC i2c_master/delay_reg_reg_11_:CK 2.843e-02
*RC i2c_master/delay_reg_reg_14_:CK 2.843e-02
*RC i2c_master/delay_reg_reg_12_:CK 2.843e-02
*RC i2c_master/state_reg_reg_0_:CK 2.843e-02
*RC i2c_master/phy_state_reg_reg_1_:CK 2.843e-02
*RC i2c_master/phy_state_reg_reg_3_:CK 2.843e-02
*RC i2c_master/phy_state_reg_reg_2_:CK 2.843e-02
*RC i2c_master/mode_stop_reg_reg:CK 2.843e-02
*RC i2c_master/phy_state_reg_reg_0_:CK 2.843e-02
*RC i2c_master/bit_count_reg_reg_3_:CK 2.843e-02
*RC i2c_master/delay_reg_reg_15_:CK 2.843e-02
*RC i2c_master/bus_active_reg_reg:CK 2.843e-02
*RC i2c_master/delay_reg_reg_16_:CK 2.843e-02
*RC i2c_master/delay_scl_reg_reg:CK 2.843e-02
*RC i2c_master/mode_write_multiple_reg_reg:CK 2.843e-02
*RC i2c_master/last_reg_reg:CK 2.843e-02
*RC i2c_master/data_reg_reg_1_:CK 2.843e-02
*RC i2c_master/data_reg_reg_2_:CK 2.843e-02
*RC i2c_master/data_reg_reg_0_:CK 2.843e-02
*RC i2c_master/data_reg_reg_6_:CK 2.843e-02
*RC i2c_master/data_reg_reg_4_:CK 2.843e-02
*RC i2c_master/data_reg_reg_3_:CK 2.843e-02
*RC i2c_master/data_reg_reg_5_:CK 2.843e-02
*RC i2c_master/mode_read_reg_reg:CK 2.843e-02
*RC i2c_master/data_in_ready_reg_reg:CK 2.843e-02
*RC i2c_master/data_reg_reg_7_:CK 2.843e-02
*RC i2c_master/last_sda_i_reg_reg:CK 2.843e-02
*RC i2c_master/data_out_valid_reg_reg:CK 2.843e-02
*RC i2c_master/scl_i_reg_reg:CK 2.843e-02
*RC i2c_master/sda_o_reg_reg:CK 2.843e-02
*RC i2c_master/data_out_reg_reg_0_:CK 2.843e-02
*RC i2c_master/data_out_reg_reg_1_:CK 2.843e-02
*RC i2c_master/data_out_reg_reg_2_:CK 2.843e-02
*RC i2c_master/data_out_reg_reg_3_:CK 2.843e-02
*RC i2c_master/data_out_reg_reg_4_:CK 2.843e-02
*RC i2c_master/data_out_reg_reg_5_:CK 2.843e-02
*RC i2c_master/data_out_reg_reg_6_:CK 2.843e-02
*RC i2c_master/data_out_reg_reg_7_:CK 2.843e-02
*RC i2c_master/data_out_last_reg_reg:CK 2.843e-02
*RC i2c_master/bus_control_reg_reg:CK 2.843e-02
*RC i2c_master/missed_ack_reg_reg:CK 2.843e-02
*RC i2c_master/busy_reg_reg:CK 2.843e-02
*RC i2c_master/bit_count_reg_reg_1_:CK 2.843e-02
*RC i2c_master/bit_count_reg_reg_0_:CK 2.843e-02
*RC i2c_master/scl_o_reg_reg:CK 2.843e-02
*END

*R_NET r_i2c_start 1.571e-02
*DRIVER r_i2c_start_reg:Q
*CELL fd2qd1_hd
*C2_R1_C1 7.855e-03 9.460e-03 7.855e-03 
*LOADS
*RC U229:A 1.486e-04
*RC i2c_master/U534:B 1.486e-04
*RC i2c_master/U518:B 1.486e-04
*END

*R_NET r_i2c_read 1.491e-02
*DRIVER r_i2c_read_reg:Q
*CELL fd2qd1_hd
*C2_R1_C1 7.455e-03 9.460e-03 7.455e-03 
*LOADS
*RC U283:B 1.410e-04
*RC i2c_master/U518:A 1.410e-04
*RC i2c_master/U472:A 1.410e-04
*END

*R_NET r_i2c_write 1.521e-02
*DRIVER r_i2c_write_reg:Q
*CELL fd2qd1_hd
*C2_R1_C1 7.605e-03 9.460e-03 7.605e-03 
*LOADS
*RC U284:B 1.439e-04
*RC i2c_master/U534:A 1.439e-04
*RC i2c_master/U515:A 1.439e-04
*END

*R_NET r_i2c_write_multiple 1.503e-02
*DRIVER r_i2c_write_multiple_reg:Q
*CELL fd2qd1_hd
*C2_R1_C1 7.515e-03 9.460e-03 7.515e-03 
*LOADS
*RC U285:B 1.422e-04
*RC i2c_master/U637:A 1.422e-04
*RC i2c_master/U515:B 1.422e-04
*END

*R_NET r_i2c_cmd_valid 1.619e-02
*DRIVER r_i2c_cmd_valid_reg:Q
*CELL fd2qd1_hd
*C2_R1_C1 8.095e-03 9.460e-03 8.095e-03 
*LOADS
*RC U286:B 1.532e-04
*RC i2c_master/U516:C 1.532e-04
*RC i2c_master/U357:B 1.532e-04
*END

*R_NET r_i2c_data_in\[7\] 9.630e-03
*DRIVER r_i2c_data_in_reg_7_:Q
*CELL fd2qd1_hd
*C2_R1_C1 4.815e-03 9.100e-03 4.815e-03 
*LOADS
*RC U288:B 8.763e-05
*RC i2c_master/U671:D 8.763e-05
*END

*R_NET r_i2c_data_in\[6\] 9.810e-03
*DRIVER r_i2c_data_in_reg_6_:Q
*CELL fd2qd1_hd
*C2_R1_C1 4.905e-03 9.100e-03 4.905e-03 
*LOADS
*RC U289:B 8.927e-05
*RC i2c_master/U669:D 8.927e-05
*END

*R_NET r_i2c_data_in\[5\] 9.810e-03
*DRIVER r_i2c_data_in_reg_5_:Q
*CELL fd2qd1_hd
*C2_R1_C1 4.905e-03 9.100e-03 4.905e-03 
*LOADS
*RC U290:B 8.927e-05
*RC i2c_master/U667:D 8.927e-05
*END

*R_NET r_i2c_data_in\[4\] 9.810e-03
*DRIVER r_i2c_data_in_reg_4_:Q
*CELL fd2qd1_hd
*C2_R1_C1 4.905e-03 9.100e-03 4.905e-03 
*LOADS
*RC U291:B 8.927e-05
*RC i2c_master/U665:D 8.927e-05
*END

*R_NET r_i2c_data_in\[3\] 9.810e-03
*DRIVER r_i2c_data_in_reg_3_:Q
*CELL fd2qd1_hd
*C2_R1_C1 4.905e-03 9.100e-03 4.905e-03 
*LOADS
*RC U292:B 8.927e-05
*RC i2c_master/U663:D 8.927e-05
*END

*R_NET r_i2c_data_in\[2\] 9.810e-03
*DRIVER r_i2c_data_in_reg_2_:Q
*CELL fd2qd1_hd
*C2_R1_C1 4.905e-03 9.100e-03 4.905e-03 
*LOADS
*RC U293:B 8.927e-05
*RC i2c_master/U661:D 8.927e-05
*END

*R_NET r_i2c_data_in\[1\] 9.810e-03
*DRIVER r_i2c_data_in_reg_1_:Q
*CELL fd2qd1_hd
*C2_R1_C1 4.905e-03 9.100e-03 4.905e-03 
*LOADS
*RC U294:B 8.927e-05
*RC i2c_master/U659:D 8.927e-05
*END

*R_NET r_i2c_data_in\[0\] 9.810e-03
*DRIVER r_i2c_data_in_reg_0_:Q
*CELL fd2qd1_hd
*C2_R1_C1 4.905e-03 9.100e-03 4.905e-03 
*LOADS
*RC U295:B 8.927e-05
*RC i2c_master/U657:D 8.927e-05
*END

*R_NET r_i2c_data_in_valid 1.640e-02
*DRIVER r_i2c_data_in_valid_reg:Q
*CELL fd2qd1_hd
*C2_R1_C1 8.200e-03 9.460e-03 8.200e-03 
*LOADS
*RC U205:D1 1.551e-04
*RC i2c_master/U537:D 1.551e-04
*RC i2c_master/U513:B 1.551e-04
*END

*R_NET w_i2c_data_in_ready 2.701e-02
*DRIVER i2c_master/data_in_ready_reg_reg:Q
*CELL fd1qd1_hd
*C2_R1_C1 1.351e-02 1.549e-02 1.351e-02 
*LOADS
*RC i2c_master/U537:C 4.184e-04
*RC i2c_master/U513:A 4.184e-04
*RC U170:A 4.184e-04
*RC U254:A 4.184e-04
*RC U275:A 4.184e-04
*END

*R_NET r_i2c_data_in_last 1.033e-02
*DRIVER r_i2c_data_in_last_reg:Q
*CELL fd2qd1_hd
*C2_R1_C1 5.165e-03 9.100e-03 5.165e-03 
*LOADS
*RC U273:B 9.400e-05
*RC i2c_master/U420:B 9.400e-05
*END

*R_NET w_i2c_data_out\[7\] 8.680e-03
*DRIVER i2c_master/data_out_reg_reg_7_:Q
*CELL fd1qd1_hd
*C2_R1_C1 4.340e-03 9.100e-03 4.340e-03 
*LOADS
*RC i2c_master/U438:C 7.899e-05
*RC U212:B 7.899e-05
*END

*R_NET w_i2c_data_out\[6\] 8.680e-03
*DRIVER i2c_master/data_out_reg_reg_6_:Q
*CELL fd1qd1_hd
*C2_R1_C1 4.340e-03 9.100e-03 4.340e-03 
*LOADS
*RC i2c_master/U436:C 7.899e-05
*RC U211:B 7.899e-05
*END

*R_NET w_i2c_data_out\[5\] 8.680e-03
*DRIVER i2c_master/data_out_reg_reg_5_:Q
*CELL fd1qd1_hd
*C2_R1_C1 4.340e-03 9.100e-03 4.340e-03 
*LOADS
*RC i2c_master/U439:C 7.899e-05
*RC U210:B 7.899e-05
*END

*R_NET w_i2c_data_out\[4\] 8.680e-03
*DRIVER i2c_master/data_out_reg_reg_4_:Q
*CELL fd1qd1_hd
*C2_R1_C1 4.340e-03 9.100e-03 4.340e-03 
*LOADS
*RC i2c_master/U440:C 7.899e-05
*RC U213:B 7.899e-05
*END

*R_NET w_i2c_data_out\[3\] 8.680e-03
*DRIVER i2c_master/data_out_reg_reg_3_:Q
*CELL fd1qd1_hd
*C2_R1_C1 4.340e-03 9.100e-03 4.340e-03 
*LOADS
*RC i2c_master/U441:C 7.899e-05
*RC U215:B 7.899e-05
*END

*R_NET w_i2c_data_out\[2\] 8.680e-03
*DRIVER i2c_master/data_out_reg_reg_2_:Q
*CELL fd1qd1_hd
*C2_R1_C1 4.340e-03 9.100e-03 4.340e-03 
*LOADS
*RC i2c_master/U442:C 7.899e-05
*RC U216:B 7.899e-05
*END

*R_NET w_i2c_data_out\[1\] 8.680e-03
*DRIVER i2c_master/data_out_reg_reg_1_:Q
*CELL fd1qd1_hd
*C2_R1_C1 4.340e-03 9.100e-03 4.340e-03 
*LOADS
*RC i2c_master/U444:C 7.899e-05
*RC U209:B 7.899e-05
*END

*R_NET w_i2c_data_out\[0\] 8.680e-03
*DRIVER i2c_master/data_out_reg_reg_0_:Q
*CELL fd1qd1_hd
*C2_R1_C1 4.340e-03 9.100e-03 4.340e-03 
*LOADS
*RC i2c_master/U437:C 7.899e-05
*RC U214:B 7.899e-05
*END

*R_NET w_i2c_data_out_valid 1.600e-02
*DRIVER i2c_master/data_out_valid_reg_reg:Q
*CELL fd1qd1_hd
*C2_R1_C1 8.000e-03 9.460e-03 8.000e-03 
*LOADS
*RC i2c_master/U511:A 1.514e-04
*RC i2c_master/U421:B 1.514e-04
*RC U222:B 1.514e-04
*END

*R_NET r_i2c_data_out_ready 2.164e-02
*DRIVER r_i2c_data_out_ready_reg:Q
*CELL fd2qd1_hd
*C2_R1_C1 1.082e-02 1.094e-02 1.082e-02 
*LOADS
*RC i2c_master/U318:A 2.367e-04
*RC U272:B 2.367e-04
*RC i2c_master/U532:B 2.367e-04
*RC i2c_master/U530:A 2.367e-04
*END

*R_NET r_pstate\[5\] 1.657e-02
*DRIVER r_pstate_reg_5_:Q
*CELL fd2qd1_hd
*C2_R1_C1 8.285e-03 9.460e-03 8.285e-03 
*LOADS
*RC U237:B 1.568e-04
*RC U245:B 1.568e-04
*RC U257:B 1.568e-04
*END

*R_NET r_pstate\[3\] 1.617e-02
*DRIVER r_pstate_reg_3_:Q
*CELL fd2qd1_hd
*C2_R1_C1 8.085e-03 9.460e-03 8.085e-03 
*LOADS
*RC U238:A 1.530e-04
*RC U253:C 1.530e-04
*RC U257:A 1.530e-04
*END

*R_NET r_pstate\[1\] 2.236e-02
*DRIVER r_pstate_reg_1_:Q
*CELL fd2qd1_hd
*C2_R1_C1 1.118e-02 1.094e-02 1.118e-02 
*LOADS
*RC U232:A 2.446e-04
*RC U241:A 2.446e-04
*RC U244:A 2.446e-04
*RC U261:D 2.446e-04
*END

*R_NET r_i2c_reg_addr\[7\] 1.087e-02
*DRIVER r_i2c_reg_addr_reg_7_:Q
*CELL fd1qd1_hd
*C2_R1_C1 5.435e-03 9.100e-03 5.435e-03 
*LOADS
*RC U287:D 9.892e-05
*RC U111:A 9.892e-05
*END

*R_NET r_i2c_reg_addr\[6\] 8.680e-03
*DRIVER r_i2c_reg_addr_reg_6_:Q
*CELL fd1qd1_hd
*C2_R1_C1 4.340e-03 9.100e-03 4.340e-03 
*LOADS
*RC U112:A 7.899e-05
*RC U289:D 7.899e-05
*END

*R_NET r_i2c_reg_addr\[5\] 8.680e-03
*DRIVER r_i2c_reg_addr_reg_5_:Q
*CELL fd1qd1_hd
*C2_R1_C1 4.340e-03 9.100e-03 4.340e-03 
*LOADS
*RC U113:A 7.899e-05
*RC U290:D 7.899e-05
*END

*R_NET r_i2c_reg_addr\[4\] 8.680e-03
*DRIVER r_i2c_reg_addr_reg_4_:Q
*CELL fd1qd1_hd
*C2_R1_C1 4.340e-03 9.100e-03 4.340e-03 
*LOADS
*RC U114:A 7.899e-05
*RC U291:D 7.899e-05
*END

*R_NET r_i2c_reg_addr\[3\] 8.680e-03
*DRIVER r_i2c_reg_addr_reg_3_:Q
*CELL fd1qd1_hd
*C2_R1_C1 4.340e-03 9.100e-03 4.340e-03 
*LOADS
*RC U115:A 7.899e-05
*RC U292:D 7.899e-05
*END

*R_NET r_i2c_reg_addr\[2\] 8.680e-03
*DRIVER r_i2c_reg_addr_reg_2_:Q
*CELL fd1qd1_hd
*C2_R1_C1 4.340e-03 9.100e-03 4.340e-03 
*LOADS
*RC U116:A 7.899e-05
*RC U293:D 7.899e-05
*END

*R_NET r_i2c_reg_addr\[1\] 8.680e-03
*DRIVER r_i2c_reg_addr_reg_1_:Q
*CELL fd1qd1_hd
*C2_R1_C1 4.340e-03 9.100e-03 4.340e-03 
*LOADS
*RC U117:A 7.899e-05
*RC U294:D 7.899e-05
*END

*R_NET r_i2c_reg_addr\[0\] 8.680e-03
*DRIVER r_i2c_reg_addr_reg_0_:Q
*CELL fd1qd1_hd
*C2_R1_C1 4.340e-03 9.100e-03 4.340e-03 
*LOADS
*RC U118:A 7.899e-05
*RC U295:D 7.899e-05
*END

*R_NET r_clk_counter\[8\] 1.018e-02
*DRIVER r_clk_counter_reg_8_:Q
*CELL fd2qd1_hd
*C2_R1_C1 5.090e-03 9.100e-03 5.090e-03 
*LOADS
*RC U251:D 9.264e-05
*RC U304:A 9.264e-05
*END

*R_NET r_clk_counter\[7\] 1.640e-02
*DRIVER r_clk_counter_reg_7_:Q
*CELL fd2qd1_hd
*C2_R1_C1 8.200e-03 9.460e-03 8.200e-03 
*LOADS
*RC U233:A 1.551e-04
*RC U251:C 1.551e-04
*RC U309:A 1.551e-04
*END

*R_NET r_clk_counter\[6\] 1.582e-02
*DRIVER r_clk_counter_reg_6_:Q
*CELL fd2qd1_hd
*C2_R1_C1 7.910e-03 9.460e-03 7.910e-03 
*LOADS
*RC U181:A 1.497e-04
*RC U251:A 1.497e-04
*RC U310:A 1.497e-04
*END

*R_NET r_clk_counter\[5\] 2.107e-02
*DRIVER r_clk_counter_reg_5_:Q
*CELL fd2qd1_hd
*C2_R1_C1 1.053e-02 1.094e-02 1.053e-02 
*LOADS
*RC U207:A 2.305e-04
*RC U218:A 2.305e-04
*RC U251:B 2.305e-04
*RC U311:A 2.305e-04
*END

*R_NET r_clk_counter\[4\] 5.220e-03
*DRIVER r_clk_counter_reg_4_:Q
*CELL fd2qd1_hd
*C2_R1_C1 2.610e-03 7.370e-03 2.610e-03 
*LOADS
*RC U242:A 3.847e-05
*END

*R_NET r_clk_counter\[3\] 2.116e-02
*DRIVER r_clk_counter_reg_3_:Q
*CELL fd2qd1_hd
*C2_R1_C1 1.058e-02 1.094e-02 1.058e-02 
*LOADS
*RC U185:A 2.315e-04
*RC U208:A 2.315e-04
*RC U249:A 2.315e-04
*RC U315:A 2.315e-04
*END

*R_NET r_clk_counter\[2\] 1.001e-02
*DRIVER r_clk_counter_reg_2_:Q
*CELL fd2qd1_hd
*C2_R1_C1 5.005e-03 9.100e-03 5.005e-03 
*LOADS
*RC U239:A 9.109e-05
*RC U250:C 9.109e-05
*END

*R_NET r_clk_counter\[1\] 2.180e-02
*DRIVER r_clk_counter_reg_1_:Q
*CELL fd2qd1_hd
*C2_R1_C1 1.090e-02 1.094e-02 1.090e-02 
*LOADS
*RC U183:B 2.385e-04
*RC U204:C 2.385e-04
*RC U250:B 2.385e-04
*RC U319:A 2.385e-04
*END

*R_NET r_clk_counter\[0\] 2.148e-02
*DRIVER r_clk_counter_reg_0_:Q
*CELL fd2qd1_hd
*C2_R1_C1 1.074e-02 1.094e-02 1.074e-02 
*LOADS
*RC U183:A 2.350e-04
*RC U204:A 2.350e-04
*RC U250:A 2.350e-04
*RC U320:A 2.350e-04
*END

*R_NET r_i2c_reg_data_in\[7\] 9.750e-03
*DRIVER r_i2c_reg_data_in_reg_7_:Q
*CELL fd1qd1_hd
*C2_R1_C1 4.875e-03 9.100e-03 4.875e-03 
*LOADS
*RC U84:A 8.873e-05
*RC U287:B 8.873e-05
*END

*R_NET r_i2c_reg_data_in\[6\] 9.680e-03
*DRIVER r_i2c_reg_data_in_reg_6_:Q
*CELL fd1qd1_hd
*C2_R1_C1 4.840e-03 9.100e-03 4.840e-03 
*LOADS
*RC U289:E 8.809e-05
*RC U83:A 8.809e-05
*END

*R_NET r_i2c_reg_data_in\[5\] 9.680e-03
*DRIVER r_i2c_reg_data_in_reg_5_:Q
*CELL fd1qd1_hd
*C2_R1_C1 4.840e-03 9.100e-03 4.840e-03 
*LOADS
*RC U290:E 8.809e-05
*RC U81:A 8.809e-05
*END

*R_NET r_i2c_reg_data_in\[4\] 8.660e-03
*DRIVER r_i2c_reg_data_in_reg_4_:Q
*CELL fd1qd1_hd
*C2_R1_C1 4.330e-03 9.100e-03 4.330e-03 
*LOADS
*RC U79:A 7.881e-05
*RC U291:E 7.881e-05
*END

*R_NET r_i2c_reg_data_in\[3\] 8.660e-03
*DRIVER r_i2c_reg_data_in_reg_3_:Q
*CELL fd1qd1_hd
*C2_R1_C1 4.330e-03 9.100e-03 4.330e-03 
*LOADS
*RC U78:A 7.881e-05
*RC U292:E 7.881e-05
*END

*R_NET r_i2c_reg_data_in\[2\] 8.660e-03
*DRIVER r_i2c_reg_data_in_reg_2_:Q
*CELL fd1qd1_hd
*C2_R1_C1 4.330e-03 9.100e-03 4.330e-03 
*LOADS
*RC U77:A 7.881e-05
*RC U293:E 7.881e-05
*END

*R_NET r_i2c_reg_data_in\[1\] 9.680e-03
*DRIVER r_i2c_reg_data_in_reg_1_:Q
*CELL fd1qd1_hd
*C2_R1_C1 4.840e-03 9.100e-03 4.840e-03 
*LOADS
*RC U294:E 8.809e-05
*RC U76:A 8.809e-05
*END

*R_NET r_i2c_reg_data_in\[0\] 9.680e-03
*DRIVER r_i2c_reg_data_in_reg_0_:Q
*CELL fd1qd1_hd
*C2_R1_C1 4.840e-03 9.100e-03 4.840e-03 
*LOADS
*RC U295:E 8.809e-05
*RC U74:A 8.809e-05
*END

*R_NET N270 4.680e-03
*DRIVER U265:Y
*CELL nd4d1_hd
*C2_R1_C1 2.340e-03 7.370e-03 2.340e-03 
*LOADS
*RC r_pstate_reg_1_:D 3.449e-05
*END

*R_NET N272 9.730e-03
*DRIVER U266:Y
*CELL oa21d1_hd
*C2_R1_C1 4.865e-03 9.100e-03 4.865e-03 
*LOADS
*RC r_pstate_reg_3_:D 8.854e-05
*RC U303:C 8.854e-05
*END

*R_NET N274 4.680e-03
*DRIVER U270:Y
*CELL scg17d1_hd
*C2_R1_C1 2.340e-03 7.370e-03 2.340e-03 
*LOADS
*RC r_pstate_reg_5_:D 3.449e-05
*END

*R_NET n5 4.680e-03
*DRIVER U307:Y
*CELL oa22d1_hd
*C2_R1_C1 2.340e-03 7.370e-03 2.340e-03 
*LOADS
*RC r_clk_counter_reg_8_:D 3.449e-05
*END

*R_NET n6 4.680e-03
*DRIVER U309:Y
*CELL ao22d1_hd
*C2_R1_C1 2.340e-03 7.370e-03 2.340e-03 
*LOADS
*RC r_clk_counter_reg_7_:D 3.449e-05
*END

*R_NET n7 4.680e-03
*DRIVER U314:Y
*CELL oa22d1_hd
*C2_R1_C1 2.340e-03 7.370e-03 2.340e-03 
*LOADS
*RC r_clk_counter_reg_6_:D 3.449e-05
*END

*R_NET n8 4.680e-03
*DRIVER U207:Y
*CELL scg2d1_hd
*C2_R1_C1 2.340e-03 7.370e-03 2.340e-03 
*LOADS
*RC r_clk_counter_reg_5_:D 3.449e-05
*END

*R_NET n9 4.680e-03
*DRIVER U318:Y
*CELL oa22d1_hd
*C2_R1_C1 2.340e-03 7.370e-03 2.340e-03 
*LOADS
*RC r_clk_counter_reg_4_:D 3.449e-05
*END

*R_NET n10 4.680e-03
*DRIVER U208:Y
*CELL scg2d1_hd
*C2_R1_C1 2.340e-03 7.370e-03 2.340e-03 
*LOADS
*RC r_clk_counter_reg_3_:D 3.449e-05
*END

*R_NET n11 4.680e-03
*DRIVER U322:Y
*CELL oa22d1_hd
*C2_R1_C1 2.340e-03 7.370e-03 2.340e-03 
*LOADS
*RC r_clk_counter_reg_2_:D 3.449e-05
*END

*R_NET n12 4.680e-03
*DRIVER U204:Y
*CELL scg2d1_hd
*C2_R1_C1 2.340e-03 7.370e-03 2.340e-03 
*LOADS
*RC r_clk_counter_reg_1_:D 3.449e-05
*END

*R_NET n13 4.680e-03
*DRIVER U323:Y
*CELL oa21d1_hd
*C2_R1_C1 2.340e-03 7.370e-03 2.340e-03 
*LOADS
*RC r_clk_counter_reg_0_:D 3.449e-05
*END

*R_NET n14 4.610e-03
*DRIVER U303:Y
*CELL ao211d1_hd
*C2_R1_C1 2.305e-03 7.370e-03 2.305e-03 
*LOADS
*RC r_pstate_reg_4_:D 3.398e-05
*END

*R_NET n15 1.600e-02
*DRIVER r_pstate_reg_4_:Q
*CELL fd3d1_hd
*C2_R1_C1 8.000e-03 9.460e-03 8.000e-03 
*LOADS
*RC U169:A 1.514e-04
*RC U237:A 1.514e-04
*RC U245:A 1.514e-04
*END

*R_NET n16 4.610e-03
*DRIVER U301:Y
*CELL nr2d1_hd
*C2_R1_C1 2.305e-03 7.370e-03 2.305e-03 
*LOADS
*RC r_lstate_reg_1_:D 3.398e-05
*END

*R_NET n17 1.031e-02
*DRIVER r_lstate_reg_1_:Q
*CELL fd3d1_hd
*C2_R1_C1 5.155e-03 9.100e-03 5.155e-03 
*LOADS
*RC U192:B 9.382e-05
*RC U300:C 9.382e-05
*END

*R_NET n18 4.610e-03
*DRIVER U299:Y
*CELL nr3d1_hd
*C2_R1_C1 2.305e-03 7.370e-03 2.305e-03 
*LOADS
*RC r_pstate_reg_2_:D 3.398e-05
*END

*R_NET n19 2.625e-02
*DRIVER r_pstate_reg_2_:Q
*CELL fd3d1_hd
*C2_R1_C1 1.313e-02 1.549e-02 1.313e-02 
*LOADS
*RC U191:A 4.066e-04
*RC U243:B 4.066e-04
*RC U244:B 4.066e-04
*RC U261:C 4.066e-04
*RC U270:B 4.066e-04
*END

*R_NET n20 4.610e-03
*DRIVER U297:Y
*CELL ao21d1_hd
*C2_R1_C1 2.305e-03 7.370e-03 2.305e-03 
*LOADS
*RC r_lstate_reg_0_:D 3.398e-05
*END

*R_NET n22 4.610e-03
*DRIVER U296:Y
*CELL nr4d1_hd
*C2_R1_C1 2.305e-03 7.370e-03 2.305e-03 
*LOADS
*RC r_pstate_reg_0_:D 3.398e-05
*END

*R_NET n33 1.782e-02
*DRIVER U189:Y
*CELL clknd2d1_hd
*C2_R1_C1 8.910e-03 9.460e-03 8.910e-03 
*LOADS
*RC U193:A 1.686e-04
*RC U225:A 1.686e-04
*RC U279:D 1.686e-04
*END

*R_NET n34 2.281e-02
*DRIVER U224:Y
*CELL ivd1_hd
*C2_R1_C1 1.141e-02 1.094e-02 1.141e-02 
*LOADS
*RC U188:A 2.495e-04
*RC U271:B 2.495e-04
*RC U297:C 2.495e-04
*RC U300:A 2.495e-04
*END

*R_NET n42 2.584e-02
*DRIVER r_pstate_reg_0_:Q
*CELL fd3d1_hd
*C2_R1_C1 1.292e-02 1.549e-02 1.292e-02 
*LOADS
*RC U246:A 4.003e-04
*RC U247:A 4.003e-04
*RC U253:B 4.003e-04
*RC U262:C 4.003e-04
*RC U267:A 4.003e-04
*END

*R_NET n67 5.200e-03
*DRIVER U74:Y
*CELL ao22d1_hd
*C2_R1_C1 2.600e-03 7.370e-03 2.600e-03 
*LOADS
*RC U199:A 3.832e-05
*END

*R_NET n68 2.542e-02
*DRIVER U188:Y
*CELL clknd2d1_hd
*C2_R1_C1 1.271e-02 1.549e-02 1.271e-02 
*LOADS
*RC U198:B 3.938e-04
*RC U199:B 3.938e-04
*RC U200:B 3.938e-04
*RC U201:B 3.938e-04
*RC U202:B 3.938e-04
*END

*R_NET n69 7.118e-02
*DRIVER U120:Y
*CELL nd2bd1_hd
*C2_R1_C1 3.559e-02 2.261e-02 3.559e-02 
*LOADS
*RC U113:B 1.609e-03
*RC U114:B 1.609e-03
*RC U118:B 1.609e-03
*RC U112:B 1.609e-03
*RC U117:B 1.609e-03
*RC U116:B 1.609e-03
*RC U115:B 1.609e-03
*RC U84:B 1.609e-03
*RC U77:B 1.609e-03
*RC U79:B 1.609e-03
*RC U78:B 1.609e-03
*RC U111:B 1.609e-03
*RC U83:B 1.609e-03
*RC U81:B 1.609e-03
*RC U76:B 1.609e-03
*RC U74:B 1.609e-03
*END

*R_NET n70 7.023e-02
*DRIVER U193:Y
*CELL nr2ad1_hd
*C2_R1_C1 3.511e-02 2.261e-02 3.511e-02 
*LOADS
*RC U113:C 1.588e-03
*RC U114:C 1.588e-03
*RC U118:C 1.588e-03
*RC U112:C 1.588e-03
*RC U117:C 1.588e-03
*RC U116:C 1.588e-03
*RC U115:C 1.588e-03
*RC U84:C 1.588e-03
*RC U77:C 1.588e-03
*RC U79:C 1.588e-03
*RC U78:C 1.588e-03
*RC U111:C 1.588e-03
*RC U83:C 1.588e-03
*RC U81:C 1.588e-03
*RC U76:C 1.588e-03
*RC U74:C 1.588e-03
*END

*R_NET n71 5.200e-03
*DRIVER U76:Y
*CELL ao22d1_hd
*C2_R1_C1 2.600e-03 7.370e-03 2.600e-03 
*LOADS
*RC U200:A 3.832e-05
*END

*R_NET n72 5.200e-03
*DRIVER U81:Y
*CELL ao22d1_hd
*C2_R1_C1 2.600e-03 7.370e-03 2.600e-03 
*LOADS
*RC U201:A 3.832e-05
*END

*R_NET n73 5.200e-03
*DRIVER U83:Y
*CELL ao22d1_hd
*C2_R1_C1 2.600e-03 7.370e-03 2.600e-03 
*LOADS
*RC U202:A 3.832e-05
*END

*R_NET n91 4.820e-03
*DRIVER U271:Y
*CELL nr2d1_hd
*C2_R1_C1 2.410e-03 7.370e-03 2.410e-03 
*LOADS
*RC U120:AN 3.552e-05
*END
