*SPEF "IEEE 1481-1999"
*DESIGN "mpr121_controller"
*DATE "Tue Jun  9 04:15:30 2020"
*VENDOR "SYNOPSYS INC"
*PROGRAM "Synopsys Design Compiler cmos"
*VERSION "F-2011.09-SP5-3"
*DESIGN_FLOW "SYNTHESIS"
*DIVIDER /
*DELIMITER :
*BUS_DELIMITER []
*T_UNIT 1.0 NS
*C_UNIT 1.0 PF
*R_UNIT 1.0 KOHM
*L_UNIT 1.0 HENRY

*PORTS

o_MPR121_DATA_OUT\[7\] O *L 1.035e-02 *S 1.730e-01 1.925e-01 
o_MPR121_DATA_OUT\[6\] O *L 1.035e-02 *S 1.730e-01 1.925e-01 
o_MPR121_DATA_OUT\[5\] O *L 1.035e-02 *S 1.730e-01 1.925e-01 
o_MPR121_DATA_OUT\[4\] O *L 1.035e-02 *S 1.730e-01 1.925e-01 
o_MPR121_DATA_OUT\[3\] O *L 1.035e-02 *S 1.730e-01 1.925e-01 
o_MPR121_DATA_OUT\[2\] O *L 1.035e-02 *S 1.730e-01 1.925e-01 
o_MPR121_DATA_OUT\[1\] O *L 1.035e-02 *S 1.730e-01 1.925e-01 
o_MPR121_DATA_OUT\[0\] O *L 1.035e-02 *S 1.730e-01 1.925e-01 
o_MPR121_REG_ADDR\[7\] I *L 0.000e+00 *S 0.000e+00 0.000e+00 
o_MPR121_REG_ADDR\[6\] I *L 0.000e+00 *S 0.000e+00 0.000e+00 
o_MPR121_REG_ADDR\[5\] I *L 0.000e+00 *S 0.000e+00 0.000e+00 
o_MPR121_REG_ADDR\[4\] I *L 0.000e+00 *S 0.000e+00 0.000e+00 
o_MPR121_REG_ADDR\[3\] I *L 0.000e+00 *S 0.000e+00 0.000e+00 
o_MPR121_REG_ADDR\[2\] I *L 0.000e+00 *S 0.000e+00 0.000e+00 
o_MPR121_REG_ADDR\[1\] I *L 0.000e+00 *S 0.000e+00 0.000e+00 
o_MPR121_REG_ADDR\[0\] I *L 0.000e+00 *S 0.000e+00 0.000e+00 
i_MPR121_DATA_IN\[7\] I *L 0.000e+00 *S 0.000e+00 0.000e+00 
i_MPR121_DATA_IN\[6\] I *L 0.000e+00 *S 0.000e+00 0.000e+00 
i_MPR121_DATA_IN\[5\] I *L 0.000e+00 *S 0.000e+00 0.000e+00 
i_MPR121_DATA_IN\[4\] I *L 0.000e+00 *S 0.000e+00 0.000e+00 
i_MPR121_DATA_IN\[3\] I *L 0.000e+00 *S 0.000e+00 0.000e+00 
i_MPR121_DATA_IN\[2\] I *L 0.000e+00 *S 0.000e+00 0.000e+00 
i_MPR121_DATA_IN\[1\] I *L 0.000e+00 *S 0.000e+00 0.000e+00 
i_MPR121_DATA_IN\[0\] I *L 0.000e+00 *S 0.000e+00 0.000e+00 
i_MPR121_WRITE_ENABLE I *L 0.000e+00 *S 0.000e+00 0.000e+00 
i_MPR121_READ_ENABLE I *L 0.000e+00 *S 0.000e+00 0.000e+00 
o_MPR121_INIT_SET O *L 1.035e-02 *S 1.730e-01 1.925e-01 
o_MPR121_BUSY O *L 1.035e-02 *S 1.730e-01 1.925e-01 
o_MPR121_FAIL O *L 1.035e-02 *S 1.347e-01 1.012e-01 
i_I2C_SCL_IN I *L 0.000e+00 *S 0.000e+00 0.000e+00 
i_I2C_SDA_IN I *L 0.000e+00 *S 0.000e+00 0.000e+00 
o_I2C_SCL_OUT O *L 1.035e-02 *S 2.536e-01 1.929e-01 
o_I2C_SDA_OUT O *L 1.035e-02 *S 2.148e-01 1.599e-01 
o_I2C_SCL_EN O *L 1.035e-02 *S 1.130e-01 7.848e-02 
o_I2C_SDA_EN O *L 1.035e-02 *S 1.619e-01 1.056e-01 
i_CLK I *L 0.000e+00 *S 0.000e+00 0.000e+00 
i_RSTN I *L 0.000e+00 *S 0.000e+00 0.000e+00 

*R_NET o_MPR121_DATA_OUT\[7\] 1.777e-02
*DRIVER o_MPR121_DATA_OUT_reg_7_:Q
*CELL fd4qd1_hd
*C2_R1_C1 8.885e-03 9.100e-03 8.885e-03 
*LOADS
*RC U208:D0 1.617e-04
*RC o_MPR121_DATA_OUT\[7\] 1.617e-04
*END

*R_NET o_MPR121_DATA_OUT\[6\] 1.777e-02
*DRIVER o_MPR121_DATA_OUT_reg_6_:Q
*CELL fd4qd1_hd
*C2_R1_C1 8.885e-03 9.100e-03 8.885e-03 
*LOADS
*RC U207:D0 1.617e-04
*RC o_MPR121_DATA_OUT\[6\] 1.617e-04
*END

*R_NET o_MPR121_DATA_OUT\[5\] 1.777e-02
*DRIVER o_MPR121_DATA_OUT_reg_5_:Q
*CELL fd4qd1_hd
*C2_R1_C1 8.885e-03 9.100e-03 8.885e-03 
*LOADS
*RC U206:D0 1.617e-04
*RC o_MPR121_DATA_OUT\[5\] 1.617e-04
*END

*R_NET o_MPR121_DATA_OUT\[4\] 1.777e-02
*DRIVER o_MPR121_DATA_OUT_reg_4_:Q
*CELL fd4qd1_hd
*C2_R1_C1 8.885e-03 9.100e-03 8.885e-03 
*LOADS
*RC U205:D0 1.617e-04
*RC o_MPR121_DATA_OUT\[4\] 1.617e-04
*END

*R_NET o_MPR121_DATA_OUT\[3\] 1.777e-02
*DRIVER o_MPR121_DATA_OUT_reg_3_:Q
*CELL fd4qd1_hd
*C2_R1_C1 8.885e-03 9.100e-03 8.885e-03 
*LOADS
*RC U204:D0 1.617e-04
*RC o_MPR121_DATA_OUT\[3\] 1.617e-04
*END

*R_NET o_MPR121_DATA_OUT\[2\] 1.777e-02
*DRIVER o_MPR121_DATA_OUT_reg_2_:Q
*CELL fd4qd1_hd
*C2_R1_C1 8.885e-03 9.100e-03 8.885e-03 
*LOADS
*RC U203:D0 1.617e-04
*RC o_MPR121_DATA_OUT\[2\] 1.617e-04
*END

*R_NET o_MPR121_DATA_OUT\[1\] 1.777e-02
*DRIVER o_MPR121_DATA_OUT_reg_1_:Q
*CELL fd4qd1_hd
*C2_R1_C1 8.885e-03 9.100e-03 8.885e-03 
*LOADS
*RC U202:D0 1.617e-04
*RC o_MPR121_DATA_OUT\[1\] 1.617e-04
*END

*R_NET o_MPR121_DATA_OUT\[0\] 1.777e-02
*DRIVER o_MPR121_DATA_OUT_reg_0_:Q
*CELL fd4qd1_hd
*C2_R1_C1 8.885e-03 9.100e-03 8.885e-03 
*LOADS
*RC U201:D0 1.617e-04
*RC o_MPR121_DATA_OUT\[0\] 1.617e-04
*END

*R_NET o_MPR121_REG_ADDR\[7\] 4.730e-03
*DRIVER o_MPR121_REG_ADDR\[7\]
*CELL NULL
*C2_R1_C1 2.365e-03 7.370e-03 2.365e-03 
*LOADS
*RC U70:B 3.486e-05
*END

*R_NET o_MPR121_REG_ADDR\[6\] 4.590e-03
*DRIVER o_MPR121_REG_ADDR\[6\]
*CELL NULL
*C2_R1_C1 2.295e-03 7.370e-03 2.295e-03 
*LOADS
*RC U71:A 3.383e-05
*END

*R_NET o_MPR121_REG_ADDR\[5\] 4.590e-03
*DRIVER o_MPR121_REG_ADDR\[5\]
*CELL NULL
*C2_R1_C1 2.295e-03 7.370e-03 2.295e-03 
*LOADS
*RC U72:A 3.383e-05
*END

*R_NET o_MPR121_REG_ADDR\[4\] 4.590e-03
*DRIVER o_MPR121_REG_ADDR\[4\]
*CELL NULL
*C2_R1_C1 2.295e-03 7.370e-03 2.295e-03 
*LOADS
*RC U73:A 3.383e-05
*END

*R_NET o_MPR121_REG_ADDR\[3\] 4.590e-03
*DRIVER o_MPR121_REG_ADDR\[3\]
*CELL NULL
*C2_R1_C1 2.295e-03 7.370e-03 2.295e-03 
*LOADS
*RC U74:A 3.383e-05
*END

*R_NET o_MPR121_REG_ADDR\[2\] 4.590e-03
*DRIVER o_MPR121_REG_ADDR\[2\]
*CELL NULL
*C2_R1_C1 2.295e-03 7.370e-03 2.295e-03 
*LOADS
*RC U75:A 3.383e-05
*END

*R_NET o_MPR121_REG_ADDR\[1\] 4.590e-03
*DRIVER o_MPR121_REG_ADDR\[1\]
*CELL NULL
*C2_R1_C1 2.295e-03 7.370e-03 2.295e-03 
*LOADS
*RC U76:A 3.383e-05
*END

*R_NET o_MPR121_REG_ADDR\[0\] 4.590e-03
*DRIVER o_MPR121_REG_ADDR\[0\]
*CELL NULL
*C2_R1_C1 2.295e-03 7.370e-03 2.295e-03 
*LOADS
*RC U77:A 3.383e-05
*END

*R_NET i_MPR121_DATA_IN\[7\] 4.590e-03
*DRIVER i_MPR121_DATA_IN\[7\]
*CELL NULL
*C2_R1_C1 2.295e-03 7.370e-03 2.295e-03 
*LOADS
*RC U62:A 3.383e-05
*END

*R_NET i_MPR121_DATA_IN\[6\] 4.730e-03
*DRIVER i_MPR121_DATA_IN\[6\]
*CELL NULL
*C2_R1_C1 2.365e-03 7.370e-03 2.365e-03 
*LOADS
*RC U63:B 3.486e-05
*END

*R_NET i_MPR121_DATA_IN\[5\] 4.730e-03
*DRIVER i_MPR121_DATA_IN\[5\]
*CELL NULL
*C2_R1_C1 2.365e-03 7.370e-03 2.365e-03 
*LOADS
*RC U64:B 3.486e-05
*END

*R_NET i_MPR121_DATA_IN\[4\] 4.590e-03
*DRIVER i_MPR121_DATA_IN\[4\]
*CELL NULL
*C2_R1_C1 2.295e-03 7.370e-03 2.295e-03 
*LOADS
*RC U65:A 3.383e-05
*END

*R_NET i_MPR121_DATA_IN\[3\] 4.590e-03
*DRIVER i_MPR121_DATA_IN\[3\]
*CELL NULL
*C2_R1_C1 2.295e-03 7.370e-03 2.295e-03 
*LOADS
*RC U66:A 3.383e-05
*END

*R_NET i_MPR121_DATA_IN\[2\] 4.590e-03
*DRIVER i_MPR121_DATA_IN\[2\]
*CELL NULL
*C2_R1_C1 2.295e-03 7.370e-03 2.295e-03 
*LOADS
*RC U67:A 3.383e-05
*END

*R_NET i_MPR121_DATA_IN\[1\] 4.730e-03
*DRIVER i_MPR121_DATA_IN\[1\]
*CELL NULL
*C2_R1_C1 2.365e-03 7.370e-03 2.365e-03 
*LOADS
*RC U68:B 3.486e-05
*END

*R_NET i_MPR121_DATA_IN\[0\] 4.730e-03
*DRIVER i_MPR121_DATA_IN\[0\]
*CELL NULL
*C2_R1_C1 2.365e-03 7.370e-03 2.365e-03 
*LOADS
*RC U69:B 3.486e-05
*END

*R_NET i_MPR121_WRITE_ENABLE 2.152e-02
*DRIVER i_MPR121_WRITE_ENABLE
*CELL NULL
*C2_R1_C1 1.076e-02 1.094e-02 1.076e-02 
*LOADS
*RC U253:B 2.354e-04
*RC U265:A 2.354e-04
*RC U272:A 2.354e-04
*RC U400:B 2.354e-04
*END

*R_NET i_MPR121_READ_ENABLE 1.496e-02
*DRIVER i_MPR121_READ_ENABLE
*CELL NULL
*C2_R1_C1 7.480e-03 9.460e-03 7.480e-03 
*LOADS
*RC U171:B 1.415e-04
*RC U190:A 1.415e-04
*RC U400:A 1.415e-04
*END

*R_NET o_MPR121_INIT_SET 1.777e-02
*DRIVER o_MPR121_INIT_SET_reg:Q
*CELL fd4qd1_hd
*C2_R1_C1 8.885e-03 9.100e-03 8.885e-03 
*LOADS
*RC U260:D0 1.617e-04
*RC o_MPR121_INIT_SET 1.617e-04
*END

*R_NET o_MPR121_BUSY 1.777e-02
*DRIVER o_MPR121_BUSY_reg:Q
*CELL fd4qd1_hd
*C2_R1_C1 8.885e-03 9.100e-03 8.885e-03 
*LOADS
*RC U263:D0 1.617e-04
*RC o_MPR121_BUSY 1.617e-04
*END

*R_NET o_MPR121_FAIL 1.350e-02
*DRIVER i2c_master/missed_ack_reg_reg:Q
*CELL fd3d1_hd
*C2_R1_C1 6.750e-03 7.370e-03 6.750e-03 
*LOADS
*RC o_MPR121_FAIL 9.950e-05
*END

*R_NET i_I2C_SCL_IN 4.680e-03
*DRIVER i_I2C_SCL_IN
*CELL NULL
*C2_R1_C1 2.340e-03 7.370e-03 2.340e-03 
*LOADS
*RC i2c_master/scl_i_reg_reg:D 3.449e-05
*END

*R_NET i_I2C_SDA_IN 4.680e-03
*DRIVER i_I2C_SDA_IN
*CELL NULL
*C2_R1_C1 2.340e-03 7.370e-03 2.340e-03 
*LOADS
*RC i2c_master/sda_i_reg_reg:D 3.449e-05
*END

*R_NET o_I2C_SCL_OUT 2.940e-02
*DRIVER i2c_master/scl_o_reg_reg:Q
*CELL fds2eqd1_hd
*C2_R1_C1 1.470e-02 1.094e-02 1.470e-02 
*LOADS
*RC i2c_master/U846:A 3.216e-04
*RC i2c_master/U629:A 3.216e-04
*RC i2c_master/U101:B 3.216e-04
*RC o_I2C_SCL_OUT 3.216e-04
*END

*R_NET o_I2C_SDA_OUT 2.459e-02
*DRIVER i2c_master/sda_o_reg_reg:Q
*CELL fd1eqd1_hd
*C2_R1_C1 1.230e-02 9.460e-03 1.230e-02 
*LOADS
*RC i2c_master/U834:A 2.326e-04
*RC i2c_master/U81:B 2.326e-04
*RC o_I2C_SDA_OUT 2.326e-04
*END

*R_NET o_I2C_SCL_EN 1.350e-02
*DRIVER i2c_master/U846:Y
*CELL nid1_hd
*C2_R1_C1 6.750e-03 7.370e-03 6.750e-03 
*LOADS
*RC o_I2C_SCL_EN 9.950e-05
*END

*R_NET o_I2C_SDA_EN 1.853e-02
*DRIVER i2c_master/U834:Y
*CELL ivd1_hd
*C2_R1_C1 9.265e-03 9.100e-03 9.265e-03 
*LOADS
*RC i2c_master/U84:C 1.686e-04
*RC o_I2C_SDA_EN 1.686e-04
*END

*R_NET i_CLK 4.166e-01
*DRIVER i_CLK
*CELL NULL
*C2_R1_C1 2.083e-01 7.031e-02 2.083e-01 
*LOADS
*RC o_MPR121_DATA_OUT_reg_0_:CK 2.929e-02
*RC o_MPR121_DATA_OUT_reg_1_:CK 2.929e-02
*RC o_MPR121_DATA_OUT_reg_2_:CK 2.929e-02
*RC o_MPR121_DATA_OUT_reg_3_:CK 2.929e-02
*RC o_MPR121_DATA_OUT_reg_4_:CK 2.929e-02
*RC o_MPR121_DATA_OUT_reg_5_:CK 2.929e-02
*RC o_MPR121_DATA_OUT_reg_6_:CK 2.929e-02
*RC o_MPR121_DATA_OUT_reg_7_:CK 2.929e-02
*RC r_clk_counter_reg_9_:CK 2.929e-02
*RC r_i2c_data_in_valid_reg:CK 2.929e-02
*RC r_i2c_data_in_reg_0_:CK 2.929e-02
*RC r_i2c_data_in_reg_1_:CK 2.929e-02
*RC r_i2c_data_in_reg_2_:CK 2.929e-02
*RC r_i2c_data_in_reg_3_:CK 2.929e-02
*RC r_i2c_data_in_reg_4_:CK 2.929e-02
*RC r_i2c_data_in_reg_5_:CK 2.929e-02
*RC r_i2c_data_in_reg_6_:CK 2.929e-02
*RC r_i2c_data_in_reg_7_:CK 2.929e-02
*RC r_clk_counter_reg_8_:CK 2.929e-02
*RC r_pstate_reg_1_:CK 2.929e-02
*RC r_i2c_data_out_ready_reg:CK 2.929e-02
*RC r_i2c_stop_reg:CK 2.929e-02
*RC r_i2c_data_in_last_reg:CK 2.929e-02
*RC r_i2c_cmd_valid_reg:CK 2.929e-02
*RC r_pstate_reg_5_:CK 2.929e-02
*RC r_pstate_reg_0_:CK 2.929e-02
*RC r_clk_counter_reg_7_:CK 2.929e-02
*RC r_pstate_reg_2_:CK 2.929e-02
*RC r_clk_counter_reg_0_:CK 2.929e-02
*RC r_clk_counter_reg_1_:CK 2.929e-02
*RC r_clk_counter_reg_2_:CK 2.929e-02
*RC r_clk_counter_reg_3_:CK 2.929e-02
*RC r_clk_counter_reg_4_:CK 2.929e-02
*RC r_clk_counter_reg_5_:CK 2.929e-02
*RC r_clk_counter_reg_6_:CK 2.929e-02
*RC r_pstate_reg_4_:CK 2.929e-02
*RC r_i2c_write_reg:CK 2.929e-02
*RC r_i2c_write_multiple_reg:CK 2.929e-02
*RC r_i2c_read_reg:CK 2.929e-02
*RC r_i2c_start_reg:CK 2.929e-02
*RC o_MPR121_INIT_SET_reg:CK 2.929e-02
*RC o_MPR121_BUSY_reg:CK 2.929e-02
*RC r_pstate_reg_3_:CK 2.929e-02
*RC r_lstate_reg_1_:CK 2.929e-02
*RC r_i2c_reg_addr_reg_0_:CK 2.929e-02
*RC r_i2c_reg_addr_reg_1_:CK 2.929e-02
*RC r_i2c_reg_addr_reg_2_:CK 2.929e-02
*RC r_i2c_reg_addr_reg_3_:CK 2.929e-02
*RC r_i2c_reg_addr_reg_4_:CK 2.929e-02
*RC r_i2c_reg_addr_reg_5_:CK 2.929e-02
*RC r_i2c_reg_addr_reg_6_:CK 2.929e-02
*RC r_i2c_reg_addr_reg_7_:CK 2.929e-02
*RC r_i2c_reg_data_in_reg_0_:CK 2.929e-02
*RC r_i2c_reg_data_in_reg_1_:CK 2.929e-02
*RC r_i2c_reg_data_in_reg_2_:CK 2.929e-02
*RC r_i2c_reg_data_in_reg_3_:CK 2.929e-02
*RC r_i2c_reg_data_in_reg_4_:CK 2.929e-02
*RC r_i2c_reg_data_in_reg_5_:CK 2.929e-02
*RC r_i2c_reg_data_in_reg_6_:CK 2.929e-02
*RC r_i2c_reg_data_in_reg_7_:CK 2.929e-02
*RC r_lstate_reg_0_:CK 2.929e-02
*RC i2c_master/busy_reg_reg:CK 2.929e-02
*RC i2c_master/delay_scl_reg_reg:CK 2.929e-02
*RC i2c_master/bus_active_reg_reg:CK 2.929e-02
*RC i2c_master/last_sda_i_reg_reg:CK 2.929e-02
*RC i2c_master/sda_i_reg_reg:CK 2.929e-02
*RC i2c_master/scl_i_reg_reg:CK 2.929e-02
*RC i2c_master/bus_control_reg_reg:CK 2.929e-02
*RC i2c_master/delay_reg_reg_16_:CK 2.929e-02
*RC i2c_master/sda_o_reg_reg:CK 2.929e-02
*RC i2c_master/delay_reg_reg_3_:CK 2.929e-02
*RC i2c_master/delay_reg_reg_4_:CK 2.929e-02
*RC i2c_master/delay_reg_reg_5_:CK 2.929e-02
*RC i2c_master/delay_reg_reg_6_:CK 2.929e-02
*RC i2c_master/delay_reg_reg_8_:CK 2.929e-02
*RC i2c_master/delay_reg_reg_9_:CK 2.929e-02
*RC i2c_master/delay_reg_reg_10_:CK 2.929e-02
*RC i2c_master/delay_reg_reg_11_:CK 2.929e-02
*RC i2c_master/delay_reg_reg_12_:CK 2.929e-02
*RC i2c_master/delay_reg_reg_13_:CK 2.929e-02
*RC i2c_master/delay_reg_reg_14_:CK 2.929e-02
*RC i2c_master/delay_reg_reg_15_:CK 2.929e-02
*RC i2c_master/delay_reg_reg_1_:CK 2.929e-02
*RC i2c_master/delay_reg_reg_7_:CK 2.929e-02
*RC i2c_master/delay_reg_reg_2_:CK 2.929e-02
*RC i2c_master/delay_reg_reg_0_:CK 2.929e-02
*RC i2c_master/phy_state_reg_reg_0_:CK 2.929e-02
*RC i2c_master/phy_state_reg_reg_2_:CK 2.929e-02
*RC i2c_master/phy_state_reg_reg_3_:CK 2.929e-02
*RC i2c_master/phy_state_reg_reg_1_:CK 2.929e-02
*RC i2c_master/data_reg_reg_1_:CK 2.929e-02
*RC i2c_master/data_reg_reg_3_:CK 2.929e-02
*RC i2c_master/data_reg_reg_5_:CK 2.929e-02
*RC i2c_master/data_reg_reg_7_:CK 2.929e-02
*RC i2c_master/bit_count_reg_reg_3_:CK 2.929e-02
*RC i2c_master/bit_count_reg_reg_1_:CK 2.929e-02
*RC i2c_master/bit_count_reg_reg_2_:CK 2.929e-02
*RC i2c_master/data_reg_reg_0_:CK 2.929e-02
*RC i2c_master/data_reg_reg_2_:CK 2.929e-02
*RC i2c_master/data_reg_reg_4_:CK 2.929e-02
*RC i2c_master/data_reg_reg_6_:CK 2.929e-02
*RC i2c_master/addr_reg_reg_1_:CK 2.929e-02
*RC i2c_master/addr_reg_reg_3_:CK 2.929e-02
*RC i2c_master/addr_reg_reg_4_:CK 2.929e-02
*RC i2c_master/addr_reg_reg_6_:CK 2.929e-02
*RC i2c_master/data_out_reg_reg_0_:CK 2.929e-02
*RC i2c_master/data_out_reg_reg_1_:CK 2.929e-02
*RC i2c_master/data_out_reg_reg_2_:CK 2.929e-02
*RC i2c_master/data_out_reg_reg_3_:CK 2.929e-02
*RC i2c_master/data_out_reg_reg_4_:CK 2.929e-02
*RC i2c_master/data_out_reg_reg_5_:CK 2.929e-02
*RC i2c_master/data_out_reg_reg_6_:CK 2.929e-02
*RC i2c_master/data_out_reg_reg_7_:CK 2.929e-02
*RC i2c_master/data_out_last_reg_reg:CK 2.929e-02
*RC i2c_master/mode_read_reg_reg:CK 2.929e-02
*RC i2c_master/mode_stop_reg_reg:CK 2.929e-02
*RC i2c_master/mode_write_multiple_reg_reg:CK 2.929e-02
*RC i2c_master/bit_count_reg_reg_0_:CK 2.929e-02
*RC i2c_master/last_reg_reg:CK 2.929e-02
*RC i2c_master/phy_rx_data_reg_reg:CK 2.929e-02
*RC i2c_master/state_reg_reg_3_:CK 2.929e-02
*RC i2c_master/state_reg_reg_2_:CK 2.929e-02
*RC i2c_master/state_reg_reg_1_:CK 2.929e-02
*RC i2c_master/scl_o_reg_reg:CK 2.929e-02
*RC i2c_master/data_out_valid_reg_reg:CK 2.929e-02
*RC i2c_master/data_in_ready_reg_reg:CK 2.929e-02
*RC i2c_master/cmd_ready_reg_reg:CK 2.929e-02
*RC i2c_master/missed_ack_reg_reg:CK 2.929e-02
*RC i2c_master/state_reg_reg_0_:CK 2.929e-02
*END

*R_NET r_i2c_start 1.467e-02
*DRIVER r_i2c_start_reg:Q
*CELL fd4qd1_hd
*C2_R1_C1 7.335e-03 9.460e-03 7.335e-03 
*LOADS
*RC U258:D0 1.388e-04
*RC i2c_master/U433:A 1.388e-04
*RC i2c_master/U423:A 1.388e-04
*END

*R_NET r_i2c_read 2.496e-02
*DRIVER r_i2c_read_reg:Q
*CELL fd4qd1_hd
*C2_R1_C1 1.248e-02 1.549e-02 1.248e-02 
*LOADS
*RC U257:D0 3.866e-04
*RC i2c_master/U843:A 3.866e-04
*RC i2c_master/U792:B 3.866e-04
*RC i2c_master/U600:C 3.866e-04
*RC i2c_master/U427:A 3.866e-04
*END

*R_NET r_i2c_write 2.090e-02
*DRIVER r_i2c_write_reg:Q
*CELL fd4qd1_hd
*C2_R1_C1 1.045e-02 1.094e-02 1.045e-02 
*LOADS
*RC U255:D0 2.286e-04
*RC i2c_master/U810:B 2.286e-04
*RC i2c_master/U439:A 2.286e-04
*RC i2c_master/U427:B 2.286e-04
*END

*R_NET r_i2c_write_multiple 2.105e-02
*DRIVER r_i2c_write_multiple_reg:Q
*CELL fd4qd1_hd
*C2_R1_C1 1.052e-02 1.094e-02 1.052e-02 
*LOADS
*RC U256:D0 2.303e-04
*RC i2c_master/U842:B 2.303e-04
*RC i2c_master/U605:C 2.303e-04
*RC i2c_master/U439:B 2.303e-04
*END

*R_NET r_i2c_stop 1.398e-02
*DRIVER r_i2c_stop_reg:Q
*CELL fd4qd1_hd
*C2_R1_C1 6.990e-03 9.460e-03 6.990e-03 
*LOADS
*RC U234:D0 1.323e-04
*RC i2c_master/U845:A 1.323e-04
*RC i2c_master/U601:C 1.323e-04
*END

*R_NET r_i2c_cmd_valid 1.467e-02
*DRIVER r_i2c_cmd_valid_reg:Q
*CELL fd4qd1_hd
*C2_R1_C1 7.335e-03 9.460e-03 7.335e-03 
*LOADS
*RC U237:D0 1.388e-04
*RC i2c_master/U785:B 1.388e-04
*RC i2c_master/U438:A 1.388e-04
*END

*R_NET r_i2c_data_in\[7\] 1.017e-02
*DRIVER r_i2c_data_in_reg_7_:Q
*CELL fd4qd1_hd
*C2_R1_C1 5.085e-03 9.100e-03 5.085e-03 
*LOADS
*RC U227:D0 9.255e-05
*RC i2c_master/U232:D 9.255e-05
*END

*R_NET r_i2c_data_in\[6\] 1.017e-02
*DRIVER r_i2c_data_in_reg_6_:Q
*CELL fd4qd1_hd
*C2_R1_C1 5.085e-03 9.100e-03 5.085e-03 
*LOADS
*RC U225:D0 9.255e-05
*RC i2c_master/U234:D 9.255e-05
*END

*R_NET r_i2c_data_in\[5\] 1.017e-02
*DRIVER r_i2c_data_in_reg_5_:Q
*CELL fd4qd1_hd
*C2_R1_C1 5.085e-03 9.100e-03 5.085e-03 
*LOADS
*RC U223:D0 9.255e-05
*RC i2c_master/U237:D 9.255e-05
*END

*R_NET r_i2c_data_in\[4\] 1.017e-02
*DRIVER r_i2c_data_in_reg_4_:Q
*CELL fd4qd1_hd
*C2_R1_C1 5.085e-03 9.100e-03 5.085e-03 
*LOADS
*RC U221:D0 9.255e-05
*RC i2c_master/U239:D 9.255e-05
*END

*R_NET r_i2c_data_in\[3\] 1.017e-02
*DRIVER r_i2c_data_in_reg_3_:Q
*CELL fd4qd1_hd
*C2_R1_C1 5.085e-03 9.100e-03 5.085e-03 
*LOADS
*RC U219:D0 9.255e-05
*RC i2c_master/U242:D 9.255e-05
*END

*R_NET r_i2c_data_in\[2\] 1.017e-02
*DRIVER r_i2c_data_in_reg_2_:Q
*CELL fd4qd1_hd
*C2_R1_C1 5.085e-03 9.100e-03 5.085e-03 
*LOADS
*RC U217:D0 9.255e-05
*RC i2c_master/U244:D 9.255e-05
*END

*R_NET r_i2c_data_in\[1\] 1.017e-02
*DRIVER r_i2c_data_in_reg_1_:Q
*CELL fd4qd1_hd
*C2_R1_C1 5.085e-03 9.100e-03 5.085e-03 
*LOADS
*RC U215:D0 9.255e-05
*RC i2c_master/U247:D 9.255e-05
*END

*R_NET r_i2c_data_in\[0\] 1.017e-02
*DRIVER r_i2c_data_in_reg_0_:Q
*CELL fd4qd1_hd
*C2_R1_C1 5.085e-03 9.100e-03 5.085e-03 
*LOADS
*RC U213:D0 9.255e-05
*RC i2c_master/U250:D 9.255e-05
*END

*R_NET r_i2c_data_in_valid 9.010e-03
*DRIVER r_i2c_data_in_valid_reg:Q
*CELL fd4qd1_hd
*C2_R1_C1 4.505e-03 9.100e-03 4.505e-03 
*LOADS
*RC U210:D0 8.199e-05
*RC i2c_master/U824:B 8.199e-05
*END

*R_NET w_i2c_data_in_ready 3.074e-02
*DRIVER i2c_master/data_in_ready_reg_reg:Q
*CELL fd3d1_hd
*C2_R1_C1 1.537e-02 1.674e-02 1.537e-02 
*LOADS
*RC i2c_master/U824:A 5.146e-04
*RC U156:A 5.146e-04
*RC U157:B 5.146e-04
*RC U43:A 5.146e-04
*RC U389:A 5.146e-04
*RC U52:A 5.146e-04
*END

*R_NET r_i2c_data_in_last 8.780e-03
*DRIVER r_i2c_data_in_last_reg:Q
*CELL fd4qd1_hd
*C2_R1_C1 4.390e-03 9.100e-03 4.390e-03 
*LOADS
*RC U235:D0 7.990e-05
*RC i2c_master/U229:B 7.990e-05
*END

*R_NET w_i2c_data_out\[7\] 8.990e-03
*DRIVER i2c_master/data_out_reg_reg_7_:Q
*CELL fds2eqd1_hd
*C2_R1_C1 4.495e-03 9.100e-03 4.495e-03 
*LOADS
*RC i2c_master/U595:C 8.181e-05
*RC U208:D1 8.181e-05
*END

*R_NET w_i2c_data_out\[6\] 8.990e-03
*DRIVER i2c_master/data_out_reg_reg_6_:Q
*CELL fds2eqd1_hd
*C2_R1_C1 4.495e-03 9.100e-03 4.495e-03 
*LOADS
*RC i2c_master/U594:C 8.181e-05
*RC U207:D1 8.181e-05
*END

*R_NET w_i2c_data_out\[5\] 8.990e-03
*DRIVER i2c_master/data_out_reg_reg_5_:Q
*CELL fds2eqd1_hd
*C2_R1_C1 4.495e-03 9.100e-03 4.495e-03 
*LOADS
*RC i2c_master/U593:C 8.181e-05
*RC U206:D1 8.181e-05
*END

*R_NET w_i2c_data_out\[4\] 8.990e-03
*DRIVER i2c_master/data_out_reg_reg_4_:Q
*CELL fds2eqd1_hd
*C2_R1_C1 4.495e-03 9.100e-03 4.495e-03 
*LOADS
*RC i2c_master/U592:C 8.181e-05
*RC U205:D1 8.181e-05
*END

*R_NET w_i2c_data_out\[3\] 8.990e-03
*DRIVER i2c_master/data_out_reg_reg_3_:Q
*CELL fds2eqd1_hd
*C2_R1_C1 4.495e-03 9.100e-03 4.495e-03 
*LOADS
*RC i2c_master/U591:C 8.181e-05
*RC U204:D1 8.181e-05
*END

*R_NET w_i2c_data_out\[2\] 8.990e-03
*DRIVER i2c_master/data_out_reg_reg_2_:Q
*CELL fds2eqd1_hd
*C2_R1_C1 4.495e-03 9.100e-03 4.495e-03 
*LOADS
*RC i2c_master/U590:C 8.181e-05
*RC U203:D1 8.181e-05
*END

*R_NET w_i2c_data_out\[1\] 8.990e-03
*DRIVER i2c_master/data_out_reg_reg_1_:Q
*CELL fds2eqd1_hd
*C2_R1_C1 4.495e-03 9.100e-03 4.495e-03 
*LOADS
*RC i2c_master/U589:C 8.181e-05
*RC U202:D1 8.181e-05
*END

*R_NET w_i2c_data_out\[0\] 8.990e-03
*DRIVER i2c_master/data_out_reg_reg_0_:Q
*CELL fds2eqd1_hd
*C2_R1_C1 4.495e-03 9.100e-03 4.495e-03 
*LOADS
*RC i2c_master/U588:C 8.181e-05
*RC U201:D1 8.181e-05
*END

*R_NET w_i2c_data_out_valid 2.064e-02
*DRIVER i2c_master/data_out_valid_reg_reg:Q
*CELL fd3d1_hd
*C2_R1_C1 1.032e-02 1.094e-02 1.032e-02 
*LOADS
*RC i2c_master/U617:A 2.258e-04
*RC i2c_master/U110:B 2.258e-04
*RC U170:B 2.258e-04
*RC U35:A 2.258e-04
*END

*R_NET r_i2c_data_out_ready 9.490e-03
*DRIVER r_i2c_data_out_ready_reg:Q
*CELL fd4qd1_hd
*C2_R1_C1 4.745e-03 9.100e-03 4.745e-03 
*LOADS
*RC U233:D0 8.636e-05
*RC i2c_master/U519:A 8.636e-05
*END

*R_NET r_pstate\[5\] 4.947e-02
*DRIVER r_pstate_reg_5_:Q
*CELL fd4qd1_hd
*C2_R1_C1 2.474e-02 2.115e-02 2.474e-02 
*LOADS
*RC U280:A 1.046e-03
*RC U279:A 1.046e-03
*RC U278:A 1.046e-03
*RC U277:A 1.046e-03
*RC U276:A 1.046e-03
*RC U275:A 1.046e-03
*RC U274:A 1.046e-03
*RC U273:A 1.046e-03
*RC U293:A 1.046e-03
*RC U291:A 1.046e-03
*END

*R_NET r_pstate\[4\] 5.491e-02
*DRIVER r_pstate_reg_4_:Q
*CELL fd4qd1_hd
*C2_R1_C1 2.746e-02 2.139e-02 2.746e-02 
*LOADS
*RC U145:A 1.175e-03
*RC U299:B 1.175e-03
*RC U298:B 1.175e-03
*RC U297:B 1.175e-03
*RC U296:B 1.175e-03
*RC U295:B 1.175e-03
*RC U294:B 1.175e-03
*RC U293:B 1.175e-03
*RC U292:B 1.175e-03
*RC U291:B 1.175e-03
*RC U290:B 1.175e-03
*END

*R_NET r_pstate\[3\] 7.320e-02
*DRIVER r_pstate_reg_3_:Q
*CELL fd4qd1_hd
*C2_R1_C1 3.660e-02 2.347e-02 3.660e-02 
*LOADS
*RC U316:A 1.718e-03
*RC U315:A 1.718e-03
*RC U314:A 1.718e-03
*RC U313:A 1.718e-03
*RC U312:A 1.718e-03
*RC U311:A 1.718e-03
*RC U310:A 1.718e-03
*RC U309:A 1.718e-03
*RC U308:A 1.718e-03
*RC U307:A 1.718e-03
*RC U306:A 1.718e-03
*RC U305:A 1.718e-03
*RC U304:A 1.718e-03
*RC U303:A 1.718e-03
*RC U302:A 1.718e-03
*RC U301:A 1.718e-03
*RC U300:A 1.718e-03
*END

*R_NET r_pstate\[2\] 5.847e-02
*DRIVER r_pstate_reg_2_:Q
*CELL fd4qd1_hd
*C2_R1_C1 2.923e-02 2.163e-02 2.923e-02 
*LOADS
*RC U146:B 1.265e-03
*RC U149:A 1.265e-03
*RC U315:B 1.265e-03
*RC U313:B 1.265e-03
*RC U311:B 1.265e-03
*RC U310:B 1.265e-03
*RC U308:B 1.265e-03
*RC U306:B 1.265e-03
*RC U304:B 1.265e-03
*RC U303:B 1.265e-03
*RC U302:B 1.265e-03
*RC U301:B 1.265e-03
*END

*R_NET r_pstate\[1\] 4.947e-02
*DRIVER r_pstate_reg_1_:Q
*CELL fd4qd1_hd
*C2_R1_C1 2.474e-02 2.115e-02 2.474e-02 
*LOADS
*RC U150:A 1.046e-03
*RC U164:A 1.046e-03
*RC U166:A 1.046e-03
*RC U172:A 1.046e-03
*RC U198:A 1.046e-03
*RC U288:A 1.046e-03
*RC U287:A 1.046e-03
*RC U286:A 1.046e-03
*RC U285:A 1.046e-03
*RC U282:A 1.046e-03
*END

*R_NET r_pstate\[0\] 5.136e-02
*DRIVER r_pstate_reg_0_:Q
*CELL fd4qd1_hd
*C2_R1_C1 2.568e-02 2.115e-02 2.568e-02 
*LOADS
*RC U151:A 1.086e-03
*RC U289:B 1.086e-03
*RC U288:B 1.086e-03
*RC U287:B 1.086e-03
*RC U286:B 1.086e-03
*RC U285:B 1.086e-03
*RC U284:B 1.086e-03
*RC U283:B 1.086e-03
*RC U282:B 1.086e-03
*RC U281:B 1.086e-03
*END

*R_NET r_i2c_reg_addr\[7\] 4.670e-03
*DRIVER r_i2c_reg_addr_reg_7_:Q
*CELL fds2eqd1_hd
*C2_R1_C1 2.335e-03 7.370e-03 2.335e-03 
*LOADS
*RC U228:D 3.442e-05
*END

*R_NET r_i2c_reg_addr\[6\] 4.670e-03
*DRIVER r_i2c_reg_addr_reg_6_:Q
*CELL fds2eqd1_hd
*C2_R1_C1 2.335e-03 7.370e-03 2.335e-03 
*LOADS
*RC U226:D 3.442e-05
*END

*R_NET r_i2c_reg_addr\[5\] 4.670e-03
*DRIVER r_i2c_reg_addr_reg_5_:Q
*CELL fds2eqd1_hd
*C2_R1_C1 2.335e-03 7.370e-03 2.335e-03 
*LOADS
*RC U224:D 3.442e-05
*END

*R_NET r_i2c_reg_addr\[4\] 4.670e-03
*DRIVER r_i2c_reg_addr_reg_4_:Q
*CELL fds2eqd1_hd
*C2_R1_C1 2.335e-03 7.370e-03 2.335e-03 
*LOADS
*RC U222:D 3.442e-05
*END

*R_NET r_i2c_reg_addr\[3\] 4.670e-03
*DRIVER r_i2c_reg_addr_reg_3_:Q
*CELL fds2eqd1_hd
*C2_R1_C1 2.335e-03 7.370e-03 2.335e-03 
*LOADS
*RC U220:D 3.442e-05
*END

*R_NET r_i2c_reg_addr\[2\] 4.670e-03
*DRIVER r_i2c_reg_addr_reg_2_:Q
*CELL fds2eqd1_hd
*C2_R1_C1 2.335e-03 7.370e-03 2.335e-03 
*LOADS
*RC U218:D 3.442e-05
*END

*R_NET r_i2c_reg_addr\[1\] 4.670e-03
*DRIVER r_i2c_reg_addr_reg_1_:Q
*CELL fds2eqd1_hd
*C2_R1_C1 2.335e-03 7.370e-03 2.335e-03 
*LOADS
*RC U216:D 3.442e-05
*END

*R_NET r_i2c_reg_addr\[0\] 4.670e-03
*DRIVER r_i2c_reg_addr_reg_0_:Q
*CELL fds2eqd1_hd
*C2_R1_C1 2.335e-03 7.370e-03 2.335e-03 
*LOADS
*RC U214:D 3.442e-05
*END

*R_NET r_clk_counter\[9\] 1.668e-02
*DRIVER r_clk_counter_reg_9_:Q
*CELL fd4qd1_hd
*C2_R1_C1 8.340e-03 9.460e-03 8.340e-03 
*LOADS
*RC U209:D0 1.578e-04
*RC U387:C 1.578e-04
*RC add_x_2/U13:B 1.578e-04
*END

*R_NET r_clk_counter\[8\] 1.762e-02
*DRIVER r_clk_counter_reg_8_:Q
*CELL fd4qd1_hd
*C2_R1_C1 8.810e-03 9.460e-03 8.810e-03 
*LOADS
*RC U229:D0 1.667e-04
*RC U403:A 1.667e-04
*RC add_x_2/U2:A 1.667e-04
*END

*R_NET r_clk_counter\[7\] 1.765e-02
*DRIVER r_clk_counter_reg_7_:Q
*CELL fd4qd1_hd
*C2_R1_C1 8.825e-03 9.460e-03 8.825e-03 
*LOADS
*RC U242:D0 1.670e-04
*RC U403:C 1.670e-04
*RC add_x_2/U3:A 1.670e-04
*END

*R_NET r_clk_counter\[6\] 1.771e-02
*DRIVER r_clk_counter_reg_6_:Q
*CELL fd4qd1_hd
*C2_R1_C1 8.855e-03 9.460e-03 8.855e-03 
*LOADS
*RC U251:D0 1.675e-04
*RC U387:A 1.675e-04
*RC add_x_2/U4:A 1.675e-04
*END

*R_NET r_clk_counter\[5\] 1.762e-02
*DRIVER r_clk_counter_reg_5_:Q
*CELL fd4qd1_hd
*C2_R1_C1 8.810e-03 9.460e-03 8.810e-03 
*LOADS
*RC U250:D0 1.667e-04
*RC U403:D 1.667e-04
*RC add_x_2/U5:A 1.667e-04
*END

*R_NET r_clk_counter\[4\] 1.762e-02
*DRIVER r_clk_counter_reg_4_:Q
*CELL fd4qd1_hd
*C2_R1_C1 8.810e-03 9.460e-03 8.810e-03 
*LOADS
*RC U249:D0 1.667e-04
*RC U403:B 1.667e-04
*RC add_x_2/U6:A 1.667e-04
*END

*R_NET r_clk_counter\[3\] 1.710e-02
*DRIVER r_clk_counter_reg_3_:Q
*CELL fd4qd1_hd
*C2_R1_C1 8.550e-03 9.460e-03 8.550e-03 
*LOADS
*RC U248:D0 1.618e-04
*RC U401:A 1.618e-04
*RC add_x_2/U7:A 1.618e-04
*END

*R_NET r_clk_counter\[2\] 1.745e-02
*DRIVER r_clk_counter_reg_2_:Q
*CELL fd4qd1_hd
*C2_R1_C1 8.725e-03 9.460e-03 8.725e-03 
*LOADS
*RC U247:D0 1.651e-04
*RC U402:C 1.651e-04
*RC add_x_2/U8:A 1.651e-04
*END

*R_NET r_clk_counter\[1\] 1.772e-02
*DRIVER r_clk_counter_reg_1_:Q
*CELL fd4qd1_hd
*C2_R1_C1 8.860e-03 9.460e-03 8.860e-03 
*LOADS
*RC U246:D0 1.676e-04
*RC U402:A 1.676e-04
*RC add_x_2/U9:A 1.676e-04
*END

*R_NET r_clk_counter\[0\] 2.446e-02
*DRIVER r_clk_counter_reg_0_:Q
*CELL fd4qd1_hd
*C2_R1_C1 1.223e-02 1.094e-02 1.223e-02 
*LOADS
*RC U245:D0 2.676e-04
*RC U402:B 2.676e-04
*RC add_x_2/U14:A 2.676e-04
*RC add_x_2/U9:B 2.676e-04
*END

*R_NET r_lstate_0_ 9.490e-03
*DRIVER r_lstate_reg_0_:Q
*CELL fd4qd1_hd
*C2_R1_C1 4.745e-03 9.100e-03 4.745e-03 
*LOADS
*RC U271:D0 8.636e-05
*RC U377:A 8.636e-05
*END

*R_NET N47 4.550e-02
*DRIVER U277:Y
*CELL ivd1_hd
*C2_R1_C1 2.275e-02 2.090e-02 2.275e-02 
*LOADS
*RC U186:A 9.511e-04
*RC U299:A 9.511e-04
*RC U298:A 9.511e-04
*RC U297:A 9.511e-04
*RC U296:A 9.511e-04
*RC U295:A 9.511e-04
*RC U294:A 9.511e-04
*RC U292:A 9.511e-04
*RC U290:A 9.511e-04
*END

*R_NET N48 4.378e-02
*DRIVER U145:Y
*CELL ivd1_hd
*C2_R1_C1 2.189e-02 2.066e-02 2.189e-02 
*LOADS
*RC U186:B 9.045e-04
*RC U280:B 9.045e-04
*RC U279:B 9.045e-04
*RC U278:B 9.045e-04
*RC U276:B 9.045e-04
*RC U275:B 9.045e-04
*RC U274:B 9.045e-04
*RC U273:B 9.045e-04
*END

*R_NET N49 8.790e-03
*DRIVER U307:Y
*CELL ivd1_hd
*C2_R1_C1 4.395e-03 9.100e-03 4.395e-03 
*LOADS
*RC U144:A 7.999e-05
*RC U146:A 7.999e-05
*END

*R_NET N50 3.468e-02
*DRIVER U149:Y
*CELL ivd1_hd
*C2_R1_C1 1.734e-02 1.715e-02 1.734e-02 
*LOADS
*RC U144:B 5.948e-04
*RC U316:B 5.948e-04
*RC U314:B 5.948e-04
*RC U312:B 5.948e-04
*RC U309:B 5.948e-04
*RC U305:B 5.948e-04
*RC U300:B 5.948e-04
*END

*R_NET N51 4.550e-02
*DRIVER U150:Y
*CELL ivd1_hd
*C2_R1_C1 2.275e-02 2.090e-02 2.275e-02 
*LOADS
*RC U140:A 9.511e-04
*RC U142:A 9.511e-04
*RC U147:A 9.511e-04
*RC U184:A 9.511e-04
*RC U192:A 9.511e-04
*RC U289:A 9.511e-04
*RC U284:A 9.511e-04
*RC U283:A 9.511e-04
*RC U281:A 9.511e-04
*END

*R_NET N52 4.733e-02
*DRIVER U151:Y
*CELL ivd1_hd
*C2_R1_C1 2.367e-02 2.090e-02 2.367e-02 
*LOADS
*RC U140:B 9.894e-04
*RC U142:B 9.894e-04
*RC U147:B 9.894e-04
*RC U164:B 9.894e-04
*RC U166:B 9.894e-04
*RC U172:B 9.894e-04
*RC U184:B 9.894e-04
*RC U192:B 9.894e-04
*RC U198:B 9.894e-04
*END

*R_NET N53 4.590e-03
*DRIVER U186:Y
*CELL ad2d1_hd
*C2_R1_C1 2.295e-03 7.370e-03 2.295e-03 
*LOADS
*RC U185:A 3.383e-05
*END

*R_NET N54 4.740e-03
*DRIVER U144:Y
*CELL ad2d1_hd
*C2_R1_C1 2.370e-03 7.370e-03 2.370e-03 
*LOADS
*RC U185:B 3.493e-05
*END

*R_NET N55 4.740e-03
*DRIVER U184:Y
*CELL ad2d1_hd
*C2_R1_C1 2.370e-03 7.370e-03 2.370e-03 
*LOADS
*RC U183:B 3.493e-05
*END

*R_NET N56 4.590e-03
*DRIVER U185:Y
*CELL ad2d1_hd
*C2_R1_C1 2.295e-03 7.370e-03 2.295e-03 
*LOADS
*RC U183:A 3.383e-05
*END

*R_NET N57 3.282e-02
*DRIVER U183:Y
*CELL ad2d1_hd
*C2_R1_C1 1.641e-02 1.674e-02 1.641e-02 
*LOADS
*RC U182:A 5.494e-04
*RC U200:A 5.494e-04
*RC U262:A 5.494e-04
*RC U394:A 5.494e-04
*RC U397:A 5.494e-04
*RC U10:A 5.494e-04
*END

*R_NET N58 4.980e-03
*DRIVER U293:Y
*CELL or2d1_hd
*C2_R1_C1 2.490e-03 7.370e-03 2.490e-03 
*LOADS
*RC U199:A 3.670e-05
*END

*R_NET N59 5.190e-03
*DRIVER U304:Y
*CELL or2d1_hd
*C2_R1_C1 2.595e-03 7.370e-03 2.595e-03 
*LOADS
*RC U199:B 3.825e-05
*END

*R_NET N60 5.640e-03
*DRIVER U198:Y
*CELL or2d1_hd
*C2_R1_C1 2.820e-03 7.370e-03 2.820e-03 
*LOADS
*RC U197:B 4.157e-05
*END

*R_NET N61 5.520e-03
*DRIVER U199:Y
*CELL or2d1_hd
*C2_R1_C1 2.760e-03 7.370e-03 2.760e-03 
*LOADS
*RC U197:A 4.068e-05
*END

*R_NET N64 4.980e-03
*DRIVER U291:Y
*CELL or2d1_hd
*C2_R1_C1 2.490e-03 7.370e-03 2.490e-03 
*LOADS
*RC U196:A 3.670e-05
*END

*R_NET N65 5.190e-03
*DRIVER U302:Y
*CELL or2d1_hd
*C2_R1_C1 2.595e-03 7.370e-03 2.595e-03 
*LOADS
*RC U196:B 3.825e-05
*END

*R_NET N66 8.130e-03
*DRIVER U281:Y
*CELL or2d1_hd
*C2_R1_C1 4.065e-03 7.370e-03 4.065e-03 
*LOADS
*RC U195:B 5.992e-05
*END

*R_NET N67 7.560e-03
*DRIVER U196:Y
*CELL or2d1_hd
*C2_R1_C1 3.780e-03 7.370e-03 3.780e-03 
*LOADS
*RC U195:A 5.572e-05
*END

*R_NET N70 4.980e-03
*DRIVER U280:Y
*CELL or2d1_hd
*C2_R1_C1 2.490e-03 7.370e-03 2.490e-03 
*LOADS
*RC U178:A 3.670e-05
*END

*R_NET N71 5.190e-03
*DRIVER U313:Y
*CELL or2d1_hd
*C2_R1_C1 2.595e-03 7.370e-03 2.595e-03 
*LOADS
*RC U178:B 3.825e-05
*END

*R_NET N72 5.640e-03
*DRIVER U285:Y
*CELL or2d1_hd
*C2_R1_C1 2.820e-03 7.370e-03 2.820e-03 
*LOADS
*RC U379:B 4.157e-05
*END

*R_NET N73 5.520e-03
*DRIVER U178:Y
*CELL or2d1_hd
*C2_R1_C1 2.760e-03 7.370e-03 2.760e-03 
*LOADS
*RC U379:A 4.068e-05
*END

*R_NET N76 4.980e-03
*DRIVER U276:Y
*CELL or2d1_hd
*C2_R1_C1 2.490e-03 7.370e-03 2.490e-03 
*LOADS
*RC U165:A 3.670e-05
*END

*R_NET N77 5.190e-03
*DRIVER U308:Y
*CELL or2d1_hd
*C2_R1_C1 2.595e-03 7.370e-03 2.595e-03 
*LOADS
*RC U165:B 3.825e-05
*END

*R_NET N78 5.640e-03
*DRIVER U164:Y
*CELL or2d1_hd
*C2_R1_C1 2.820e-03 7.370e-03 2.820e-03 
*LOADS
*RC U392:B 4.157e-05
*END

*R_NET N79 5.520e-03
*DRIVER U165:Y
*CELL or2d1_hd