*SPEF "IEEE 1481-1999"
*DESIGN "float_adder"
<<<<<<< HEAD
*DATE "Wed May  6 15:30:23 2020"
=======
*DATE "Wed May 13 20:12:53 2020"
>>>>>>> jin
*VENDOR "SYNOPSYS INC"
*PROGRAM "Synopsys Design Compiler cmos"
*VERSION "F-2011.09-SP5-3"
*DESIGN_FLOW "SYNTHESIS"
*DIVIDER /
*DELIMITER :
*BUS_DELIMITER []
*T_UNIT 1.0 NS
*C_UNIT 1.0 PF
*R_UNIT 1.0 KOHM
*L_UNIT 1.0 HENRY

*PORTS

i_A\[31\] I *L 0.000e+00 *S 0.000e+00 0.000e+00 
i_A\[30\] I *L 0.000e+00 *S 0.000e+00 0.000e+00 
i_A\[29\] I *L 0.000e+00 *S 0.000e+00 0.000e+00 
i_A\[28\] I *L 0.000e+00 *S 0.000e+00 0.000e+00 
i_A\[27\] I *L 0.000e+00 *S 0.000e+00 0.000e+00 
i_A\[26\] I *L 0.000e+00 *S 0.000e+00 0.000e+00 
i_A\[25\] I *L 0.000e+00 *S 0.000e+00 0.000e+00 
i_A\[24\] I *L 0.000e+00 *S 0.000e+00 0.000e+00 
i_A\[23\] I *L 0.000e+00 *S 0.000e+00 0.000e+00 
i_A\[22\] I *L 0.000e+00 *S 0.000e+00 0.000e+00 
i_A\[21\] I *L 0.000e+00 *S 0.000e+00 0.000e+00 
i_A\[20\] I *L 0.000e+00 *S 0.000e+00 0.000e+00 
i_A\[19\] I *L 0.000e+00 *S 0.000e+00 0.000e+00 
i_A\[18\] I *L 0.000e+00 *S 0.000e+00 0.000e+00 
i_A\[17\] I *L 0.000e+00 *S 0.000e+00 0.000e+00 
i_A\[16\] I *L 0.000e+00 *S 0.000e+00 0.000e+00 
i_A\[15\] I *L 0.000e+00 *S 0.000e+00 0.000e+00 
i_A\[14\] I *L 0.000e+00 *S 0.000e+00 0.000e+00 
i_A\[13\] I *L 0.000e+00 *S 0.000e+00 0.000e+00 
i_A\[12\] I *L 0.000e+00 *S 0.000e+00 0.000e+00 
i_A\[11\] I *L 0.000e+00 *S 0.000e+00 0.000e+00 
i_A\[10\] I *L 0.000e+00 *S 0.000e+00 0.000e+00 
i_A\[9\] I *L 0.000e+00 *S 0.000e+00 0.000e+00 
i_A\[8\] I *L 0.000e+00 *S 0.000e+00 0.000e+00 
i_A\[7\] I *L 0.000e+00 *S 0.000e+00 0.000e+00 
i_A\[6\] I *L 0.000e+00 *S 0.000e+00 0.000e+00 
i_A\[5\] I *L 0.000e+00 *S 0.000e+00 0.000e+00 
i_A\[4\] I *L 0.000e+00 *S 0.000e+00 0.000e+00 
i_A\[3\] I *L 0.000e+00 *S 0.000e+00 0.000e+00 
i_A\[2\] I *L 0.000e+00 *S 0.000e+00 0.000e+00 
i_A\[1\] I *L 0.000e+00 *S 0.000e+00 0.000e+00 
i_A\[0\] I *L 0.000e+00 *S 0.000e+00 0.000e+00 
i_B\[31\] I *L 0.000e+00 *S 0.000e+00 0.000e+00 
i_B\[30\] I *L 0.000e+00 *S 0.000e+00 0.000e+00 
i_B\[29\] I *L 0.000e+00 *S 0.000e+00 0.000e+00 
i_B\[28\] I *L 0.000e+00 *S 0.000e+00 0.000e+00 
i_B\[27\] I *L 0.000e+00 *S 0.000e+00 0.000e+00 
i_B\[26\] I *L 0.000e+00 *S 0.000e+00 0.000e+00 
i_B\[25\] I *L 0.000e+00 *S 0.000e+00 0.000e+00 
i_B\[24\] I *L 0.000e+00 *S 0.000e+00 0.000e+00 
i_B\[23\] I *L 0.000e+00 *S 0.000e+00 0.000e+00 
i_B\[22\] I *L 0.000e+00 *S 0.000e+00 0.000e+00 
i_B\[21\] I *L 0.000e+00 *S 0.000e+00 0.000e+00 
i_B\[20\] I *L 0.000e+00 *S 0.000e+00 0.000e+00 
i_B\[19\] I *L 0.000e+00 *S 0.000e+00 0.000e+00 
i_B\[18\] I *L 0.000e+00 *S 0.000e+00 0.000e+00 
i_B\[17\] I *L 0.000e+00 *S 0.000e+00 0.000e+00 
i_B\[16\] I *L 0.000e+00 *S 0.000e+00 0.000e+00 
i_B\[15\] I *L 0.000e+00 *S 0.000e+00 0.000e+00 
i_B\[14\] I *L 0.000e+00 *S 0.000e+00 0.000e+00 
i_B\[13\] I *L 0.000e+00 *S 0.000e+00 0.000e+00 
i_B\[12\] I *L 0.000e+00 *S 0.000e+00 0.000e+00 
i_B\[11\] I *L 0.000e+00 *S 0.000e+00 0.000e+00 
i_B\[10\] I *L 0.000e+00 *S 0.000e+00 0.000e+00 
i_B\[9\] I *L 0.000e+00 *S 0.000e+00 0.000e+00 
i_B\[8\] I *L 0.000e+00 *S 0.000e+00 0.000e+00 
i_B\[7\] I *L 0.000e+00 *S 0.000e+00 0.000e+00 
i_B\[6\] I *L 0.000e+00 *S 0.000e+00 0.000e+00 
i_B\[5\] I *L 0.000e+00 *S 0.000e+00 0.000e+00 
i_B\[4\] I *L 0.000e+00 *S 0.000e+00 0.000e+00 
i_B\[3\] I *L 0.000e+00 *S 0.000e+00 0.000e+00 
i_B\[2\] I *L 0.000e+00 *S 0.000e+00 0.000e+00 
i_B\[1\] I *L 0.000e+00 *S 0.000e+00 0.000e+00 
i_B\[0\] I *L 0.000e+00 *S 0.000e+00 0.000e+00 
i_AB_STB I *L 0.000e+00 *S 0.000e+00 0.000e+00 
<<<<<<< HEAD
o_AB_ACK O *L 1.035e-02 *S 2.081e-01 1.649e-01 
o_Z\[31\] O *L 1.035e-02 *S 1.239e-01 9.944e-02 
o_Z\[30\] O *L 1.035e-02 *S 1.239e-01 9.944e-02 
o_Z\[29\] O *L 1.035e-02 *S 1.239e-01 9.944e-02 
o_Z\[28\] O *L 1.035e-02 *S 1.239e-01 9.944e-02 
o_Z\[27\] O *L 1.035e-02 *S 1.239e-01 9.944e-02 
o_Z\[26\] O *L 1.035e-02 *S 1.239e-01 9.944e-02 
o_Z\[25\] O *L 1.035e-02 *S 1.239e-01 9.944e-02 
o_Z\[24\] O *L 1.035e-02 *S 1.239e-01 9.944e-02 
o_Z\[23\] O *L 1.035e-02 *S 1.239e-01 9.944e-02 
o_Z\[22\] O *L 1.035e-02 *S 1.239e-01 9.944e-02 
o_Z\[21\] O *L 1.035e-02 *S 1.239e-01 9.944e-02 
o_Z\[20\] O *L 1.035e-02 *S 1.239e-01 9.944e-02 
o_Z\[19\] O *L 1.035e-02 *S 1.239e-01 9.944e-02 
o_Z\[18\] O *L 1.035e-02 *S 1.239e-01 9.944e-02 
o_Z\[17\] O *L 1.035e-02 *S 1.239e-01 9.944e-02 
o_Z\[16\] O *L 1.035e-02 *S 1.239e-01 9.944e-02 
o_Z\[15\] O *L 1.035e-02 *S 1.239e-01 9.944e-02 
o_Z\[14\] O *L 1.035e-02 *S 1.239e-01 9.944e-02 
o_Z\[13\] O *L 1.035e-02 *S 1.239e-01 9.944e-02 
o_Z\[12\] O *L 1.035e-02 *S 1.239e-01 9.944e-02 
o_Z\[11\] O *L 1.035e-02 *S 1.239e-01 9.944e-02 
o_Z\[10\] O *L 1.035e-02 *S 1.239e-01 9.944e-02 
o_Z\[9\] O *L 1.035e-02 *S 1.239e-01 9.944e-02 
o_Z\[8\] O *L 1.035e-02 *S 1.239e-01 9.944e-02 
o_Z\[7\] O *L 1.035e-02 *S 1.239e-01 9.944e-02 
o_Z\[6\] O *L 1.035e-02 *S 1.239e-01 9.944e-02 
o_Z\[5\] O *L 1.035e-02 *S 1.239e-01 9.944e-02 
o_Z\[4\] O *L 1.035e-02 *S 1.239e-01 9.944e-02 
o_Z\[3\] O *L 1.035e-02 *S 1.239e-01 9.944e-02 
o_Z\[2\] O *L 1.035e-02 *S 1.239e-01 9.944e-02 
o_Z\[1\] O *L 1.035e-02 *S 1.239e-01 9.944e-02 
o_Z\[0\] O *L 1.035e-02 *S 1.239e-01 9.944e-02 
o_Z_STB O *L 1.035e-02 *S 2.063e-01 1.638e-01 
=======
o_AB_ACK O *L 1.035e-02 *S 2.155e-01 1.688e-01 
o_Z\[31\] O *L 1.035e-02 *S 1.237e-01 1.056e-01 
o_Z\[30\] O *L 1.035e-02 *S 1.237e-01 1.056e-01 
o_Z\[29\] O *L 1.035e-02 *S 1.237e-01 1.056e-01 
o_Z\[28\] O *L 1.035e-02 *S 1.237e-01 1.056e-01 
o_Z\[27\] O *L 1.035e-02 *S 1.237e-01 1.056e-01 
o_Z\[26\] O *L 1.035e-02 *S 1.237e-01 1.056e-01 
o_Z\[25\] O *L 1.035e-02 *S 1.237e-01 1.056e-01 
o_Z\[24\] O *L 1.035e-02 *S 1.237e-01 1.056e-01 
o_Z\[23\] O *L 1.035e-02 *S 1.237e-01 1.056e-01 
o_Z\[22\] O *L 1.035e-02 *S 1.237e-01 1.056e-01 
o_Z\[21\] O *L 1.035e-02 *S 1.237e-01 1.056e-01 
o_Z\[20\] O *L 1.035e-02 *S 1.237e-01 1.056e-01 
o_Z\[19\] O *L 1.035e-02 *S 1.237e-01 1.056e-01 
o_Z\[18\] O *L 1.035e-02 *S 1.237e-01 1.056e-01 
o_Z\[17\] O *L 1.035e-02 *S 1.237e-01 1.056e-01 
o_Z\[16\] O *L 1.035e-02 *S 1.237e-01 1.056e-01 
o_Z\[15\] O *L 1.035e-02 *S 1.237e-01 1.056e-01 
o_Z\[14\] O *L 1.035e-02 *S 1.237e-01 1.056e-01 
o_Z\[13\] O *L 1.035e-02 *S 1.237e-01 1.056e-01 
o_Z\[12\] O *L 1.035e-02 *S 1.237e-01 1.056e-01 
o_Z\[11\] O *L 1.035e-02 *S 1.237e-01 1.056e-01 
o_Z\[10\] O *L 1.035e-02 *S 1.237e-01 1.056e-01 
o_Z\[9\] O *L 1.035e-02 *S 1.237e-01 1.056e-01 
o_Z\[8\] O *L 1.035e-02 *S 1.237e-01 1.056e-01 
o_Z\[7\] O *L 1.035e-02 *S 1.237e-01 1.056e-01 
o_Z\[6\] O *L 1.035e-02 *S 1.237e-01 1.056e-01 
o_Z\[5\] O *L 1.035e-02 *S 1.237e-01 1.056e-01 
o_Z\[4\] O *L 1.035e-02 *S 1.237e-01 1.056e-01 
o_Z\[3\] O *L 1.035e-02 *S 1.237e-01 1.056e-01 
o_Z\[2\] O *L 1.035e-02 *S 1.237e-01 1.056e-01 
o_Z\[1\] O *L 1.035e-02 *S 1.237e-01 1.056e-01 
o_Z\[0\] O *L 1.035e-02 *S 1.237e-01 1.056e-01 
o_Z_STB O *L 1.035e-02 *S 2.157e-01 1.690e-01 
>>>>>>> jin
i_Z_ACK I *L 0.000e+00 *S 0.000e+00 0.000e+00 
i_CLK I *L 0.000e+00 *S 0.000e+00 0.000e+00 
i_RST I *L 0.000e+00 *S 0.000e+00 0.000e+00 

<<<<<<< HEAD
*R_NET i_A\[31\] 4.500e-03
*DRIVER i_A\[31\]
*CELL NULL
*C2_R1_C1 2.250e-03 7.370e-03 2.250e-03 
*LOADS
*RC a_reg_31_:D 3.316e-05
*END

*R_NET i_A\[30\] 4.500e-03
*DRIVER i_A\[30\]
*CELL NULL
*C2_R1_C1 2.250e-03 7.370e-03 2.250e-03 
*LOADS
*RC a_reg_30_:D 3.316e-05
*END

*R_NET i_A\[29\] 4.500e-03
*DRIVER i_A\[29\]
*CELL NULL
*C2_R1_C1 2.250e-03 7.370e-03 2.250e-03 
*LOADS
*RC a_reg_29_:D 3.316e-05
*END

*R_NET i_A\[28\] 4.500e-03
*DRIVER i_A\[28\]
*CELL NULL
*C2_R1_C1 2.250e-03 7.370e-03 2.250e-03 
*LOADS
*RC a_reg_28_:D 3.316e-05
*END

*R_NET i_A\[27\] 4.500e-03
*DRIVER i_A\[27\]
*CELL NULL
*C2_R1_C1 2.250e-03 7.370e-03 2.250e-03 
*LOADS
*RC a_reg_27_:D 3.316e-05
*END

*R_NET i_A\[26\] 4.500e-03
*DRIVER i_A\[26\]
*CELL NULL
*C2_R1_C1 2.250e-03 7.370e-03 2.250e-03 
*LOADS
*RC a_reg_26_:D 3.316e-05
*END

*R_NET i_A\[25\] 4.500e-03
*DRIVER i_A\[25\]
*CELL NULL
*C2_R1_C1 2.250e-03 7.370e-03 2.250e-03 
*LOADS
*RC a_reg_25_:D 3.316e-05
*END

*R_NET i_A\[24\] 4.500e-03
*DRIVER i_A\[24\]
*CELL NULL
*C2_R1_C1 2.250e-03 7.370e-03 2.250e-03 
*LOADS
*RC a_reg_24_:D 3.316e-05
*END

*R_NET i_A\[23\] 4.500e-03
*DRIVER i_A\[23\]
*CELL NULL
*C2_R1_C1 2.250e-03 7.370e-03 2.250e-03 
*LOADS
*RC a_reg_23_:D 3.316e-05
*END

*R_NET i_A\[22\] 4.500e-03
*DRIVER i_A\[22\]
*CELL NULL
*C2_R1_C1 2.250e-03 7.370e-03 2.250e-03 
*LOADS
*RC a_reg_22_:D 3.316e-05
*END

*R_NET i_A\[21\] 4.500e-03
*DRIVER i_A\[21\]
*CELL NULL
*C2_R1_C1 2.250e-03 7.370e-03 2.250e-03 
*LOADS
*RC a_reg_21_:D 3.316e-05
*END

*R_NET i_A\[20\] 4.500e-03
*DRIVER i_A\[20\]
*CELL NULL
*C2_R1_C1 2.250e-03 7.370e-03 2.250e-03 
*LOADS
*RC a_reg_20_:D 3.316e-05
*END

*R_NET i_A\[19\] 4.500e-03
*DRIVER i_A\[19\]
*CELL NULL
*C2_R1_C1 2.250e-03 7.370e-03 2.250e-03 
*LOADS
*RC a_reg_19_:D 3.316e-05
*END

*R_NET i_A\[18\] 4.500e-03
*DRIVER i_A\[18\]
*CELL NULL
*C2_R1_C1 2.250e-03 7.370e-03 2.250e-03 
*LOADS
*RC a_reg_18_:D 3.316e-05
*END

*R_NET i_A\[17\] 4.500e-03
*DRIVER i_A\[17\]
*CELL NULL
*C2_R1_C1 2.250e-03 7.370e-03 2.250e-03 
*LOADS
*RC a_reg_17_:D 3.316e-05
*END

*R_NET i_A\[16\] 4.500e-03
*DRIVER i_A\[16\]
*CELL NULL
*C2_R1_C1 2.250e-03 7.370e-03 2.250e-03 
*LOADS
*RC a_reg_16_:D 3.316e-05
*END

*R_NET i_A\[15\] 4.500e-03
*DRIVER i_A\[15\]
*CELL NULL
*C2_R1_C1 2.250e-03 7.370e-03 2.250e-03 
*LOADS
*RC a_reg_15_:D 3.316e-05
*END

*R_NET i_A\[14\] 4.500e-03
*DRIVER i_A\[14\]
*CELL NULL
*C2_R1_C1 2.250e-03 7.370e-03 2.250e-03 
*LOADS
*RC a_reg_14_:D 3.316e-05
*END

*R_NET i_A\[13\] 4.500e-03
*DRIVER i_A\[13\]
*CELL NULL
*C2_R1_C1 2.250e-03 7.370e-03 2.250e-03 
*LOADS
*RC a_reg_13_:D 3.316e-05
*END

*R_NET i_A\[12\] 4.500e-03
*DRIVER i_A\[12\]
*CELL NULL
*C2_R1_C1 2.250e-03 7.370e-03 2.250e-03 
*LOADS
*RC a_reg_12_:D 3.316e-05
*END

*R_NET i_A\[11\] 4.500e-03
*DRIVER i_A\[11\]
*CELL NULL
*C2_R1_C1 2.250e-03 7.370e-03 2.250e-03 
*LOADS
*RC a_reg_11_:D 3.316e-05
*END

*R_NET i_A\[10\] 4.500e-03
*DRIVER i_A\[10\]
*CELL NULL
*C2_R1_C1 2.250e-03 7.370e-03 2.250e-03 
*LOADS
*RC a_reg_10_:D 3.316e-05
*END

*R_NET i_A\[9\] 4.500e-03
*DRIVER i_A\[9\]
*CELL NULL
*C2_R1_C1 2.250e-03 7.370e-03 2.250e-03 
*LOADS
*RC a_reg_9_:D 3.316e-05
*END

*R_NET i_A\[8\] 4.500e-03
*DRIVER i_A\[8\]
*CELL NULL
*C2_R1_C1 2.250e-03 7.370e-03 2.250e-03 
*LOADS
*RC a_reg_8_:D 3.316e-05
*END

*R_NET i_A\[7\] 4.500e-03
*DRIVER i_A\[7\]
*CELL NULL
*C2_R1_C1 2.250e-03 7.370e-03 2.250e-03 
*LOADS
*RC a_reg_7_:D 3.316e-05
*END

*R_NET i_A\[6\] 4.500e-03
*DRIVER i_A\[6\]
*CELL NULL
*C2_R1_C1 2.250e-03 7.370e-03 2.250e-03 
*LOADS
*RC a_reg_6_:D 3.316e-05
*END

*R_NET i_A\[5\] 4.500e-03
*DRIVER i_A\[5\]
*CELL NULL
*C2_R1_C1 2.250e-03 7.370e-03 2.250e-03 
*LOADS
*RC a_reg_5_:D 3.316e-05
*END

*R_NET i_A\[4\] 4.500e-03
*DRIVER i_A\[4\]
*CELL NULL
*C2_R1_C1 2.250e-03 7.370e-03 2.250e-03 
*LOADS
*RC a_reg_4_:D 3.316e-05
*END

*R_NET i_A\[3\] 4.500e-03
*DRIVER i_A\[3\]
*CELL NULL
*C2_R1_C1 2.250e-03 7.370e-03 2.250e-03 
*LOADS
*RC a_reg_3_:D 3.316e-05
*END

*R_NET i_A\[2\] 4.500e-03
*DRIVER i_A\[2\]
*CELL NULL
*C2_R1_C1 2.250e-03 7.370e-03 2.250e-03 
*LOADS
*RC a_reg_2_:D 3.316e-05
*END

*R_NET i_A\[1\] 4.500e-03
*DRIVER i_A\[1\]
*CELL NULL
*C2_R1_C1 2.250e-03 7.370e-03 2.250e-03 
*LOADS
*RC a_reg_1_:D 3.316e-05
*END

*R_NET i_A\[0\] 4.500e-03
*DRIVER i_A\[0\]
*CELL NULL
*C2_R1_C1 2.250e-03 7.370e-03 2.250e-03 
*LOADS
*RC a_reg_0_:D 3.316e-05
*END

*R_NET i_B\[31\] 4.500e-03
*DRIVER i_B\[31\]
*CELL NULL
*C2_R1_C1 2.250e-03 7.370e-03 2.250e-03 
*LOADS
*RC b_reg_31_:D 3.316e-05
*END

*R_NET i_B\[30\] 4.500e-03
*DRIVER i_B\[30\]
*CELL NULL
*C2_R1_C1 2.250e-03 7.370e-03 2.250e-03 
*LOADS
*RC b_reg_30_:D 3.316e-05
*END

*R_NET i_B\[29\] 4.500e-03
*DRIVER i_B\[29\]
*CELL NULL
*C2_R1_C1 2.250e-03 7.370e-03 2.250e-03 
*LOADS
*RC b_reg_29_:D 3.316e-05
*END

*R_NET i_B\[28\] 4.500e-03
*DRIVER i_B\[28\]
*CELL NULL
*C2_R1_C1 2.250e-03 7.370e-03 2.250e-03 
*LOADS
*RC b_reg_28_:D 3.316e-05
*END

*R_NET i_B\[27\] 4.500e-03
*DRIVER i_B\[27\]
*CELL NULL
*C2_R1_C1 2.250e-03 7.370e-03 2.250e-03 
*LOADS
*RC b_reg_27_:D 3.316e-05
*END

*R_NET i_B\[26\] 4.500e-03
*DRIVER i_B\[26\]
*CELL NULL
*C2_R1_C1 2.250e-03 7.370e-03 2.250e-03 
*LOADS
*RC b_reg_26_:D 3.316e-05
*END

*R_NET i_B\[25\] 4.500e-03
*DRIVER i_B\[25\]
*CELL NULL
*C2_R1_C1 2.250e-03 7.370e-03 2.250e-03 
*LOADS
*RC b_reg_25_:D 3.316e-05
*END

*R_NET i_B\[24\] 4.500e-03
*DRIVER i_B\[24\]
*CELL NULL
*C2_R1_C1 2.250e-03 7.370e-03 2.250e-03 
*LOADS
*RC b_reg_24_:D 3.316e-05
*END

*R_NET i_B\[23\] 4.500e-03
*DRIVER i_B\[23\]
*CELL NULL
*C2_R1_C1 2.250e-03 7.370e-03 2.250e-03 
*LOADS
*RC b_reg_23_:D 3.316e-05
*END

*R_NET i_B\[22\] 4.500e-03
*DRIVER i_B\[22\]
*CELL NULL
*C2_R1_C1 2.250e-03 7.370e-03 2.250e-03 
*LOADS
*RC b_reg_22_:D 3.316e-05
*END

*R_NET i_B\[21\] 4.500e-03
*DRIVER i_B\[21\]
*CELL NULL
*C2_R1_C1 2.250e-03 7.370e-03 2.250e-03 
*LOADS
*RC b_reg_21_:D 3.316e-05
*END

*R_NET i_B\[20\] 4.500e-03
*DRIVER i_B\[20\]
*CELL NULL
*C2_R1_C1 2.250e-03 7.370e-03 2.250e-03 
*LOADS
*RC b_reg_20_:D 3.316e-05
*END

*R_NET i_B\[19\] 4.500e-03
*DRIVER i_B\[19\]
*CELL NULL
*C2_R1_C1 2.250e-03 7.370e-03 2.250e-03 
*LOADS
*RC b_reg_19_:D 3.316e-05
*END

*R_NET i_B\[18\] 4.500e-03
*DRIVER i_B\[18\]
*CELL NULL
*C2_R1_C1 2.250e-03 7.370e-03 2.250e-03 
*LOADS
*RC b_reg_18_:D 3.316e-05
*END

*R_NET i_B\[17\] 4.500e-03
*DRIVER i_B\[17\]
*CELL NULL
*C2_R1_C1 2.250e-03 7.370e-03 2.250e-03 
*LOADS
*RC b_reg_17_:D 3.316e-05
*END

*R_NET i_B\[16\] 4.500e-03
*DRIVER i_B\[16\]
*CELL NULL
*C2_R1_C1 2.250e-03 7.370e-03 2.250e-03 
*LOADS
*RC b_reg_16_:D 3.316e-05
*END

*R_NET i_B\[15\] 4.500e-03
*DRIVER i_B\[15\]
*CELL NULL
*C2_R1_C1 2.250e-03 7.370e-03 2.250e-03 
*LOADS
*RC b_reg_15_:D 3.316e-05
*END

*R_NET i_B\[14\] 4.500e-03
*DRIVER i_B\[14\]
*CELL NULL
*C2_R1_C1 2.250e-03 7.370e-03 2.250e-03 
*LOADS
*RC b_reg_14_:D 3.316e-05
*END

*R_NET i_B\[13\] 4.500e-03
*DRIVER i_B\[13\]
*CELL NULL
*C2_R1_C1 2.250e-03 7.370e-03 2.250e-03 
*LOADS
*RC b_reg_13_:D 3.316e-05
*END

*R_NET i_B\[12\] 4.500e-03
*DRIVER i_B\[12\]
*CELL NULL
*C2_R1_C1 2.250e-03 7.370e-03 2.250e-03 
*LOADS
*RC b_reg_12_:D 3.316e-05
*END

*R_NET i_B\[11\] 4.500e-03
*DRIVER i_B\[11\]
*CELL NULL
*C2_R1_C1 2.250e-03 7.370e-03 2.250e-03 
*LOADS
*RC b_reg_11_:D 3.316e-05
*END

*R_NET i_B\[10\] 4.500e-03
*DRIVER i_B\[10\]
*CELL NULL
*C2_R1_C1 2.250e-03 7.370e-03 2.250e-03 
*LOADS
*RC b_reg_10_:D 3.316e-05
*END

*R_NET i_B\[9\] 4.500e-03
*DRIVER i_B\[9\]
*CELL NULL
*C2_R1_C1 2.250e-03 7.370e-03 2.250e-03 
*LOADS
*RC b_reg_9_:D 3.316e-05
*END

*R_NET i_B\[8\] 4.500e-03
*DRIVER i_B\[8\]
*CELL NULL
*C2_R1_C1 2.250e-03 7.370e-03 2.250e-03 
*LOADS
*RC b_reg_8_:D 3.316e-05
*END

*R_NET i_B\[7\] 4.500e-03
*DRIVER i_B\[7\]
*CELL NULL
*C2_R1_C1 2.250e-03 7.370e-03 2.250e-03 
*LOADS
*RC b_reg_7_:D 3.316e-05
*END

*R_NET i_B\[6\] 4.500e-03
*DRIVER i_B\[6\]
*CELL NULL
*C2_R1_C1 2.250e-03 7.370e-03 2.250e-03 
*LOADS
*RC b_reg_6_:D 3.316e-05
*END

*R_NET i_B\[5\] 4.500e-03
*DRIVER i_B\[5\]
*CELL NULL
*C2_R1_C1 2.250e-03 7.370e-03 2.250e-03 
*LOADS
*RC b_reg_5_:D 3.316e-05
*END

*R_NET i_B\[4\] 4.500e-03
*DRIVER i_B\[4\]
*CELL NULL
*C2_R1_C1 2.250e-03 7.370e-03 2.250e-03 
*LOADS
*RC b_reg_4_:D 3.316e-05
*END

*R_NET i_B\[3\] 4.500e-03
*DRIVER i_B\[3\]
*CELL NULL
*C2_R1_C1 2.250e-03 7.370e-03 2.250e-03 
*LOADS
*RC b_reg_3_:D 3.316e-05
*END

*R_NET i_B\[2\] 4.500e-03
*DRIVER i_B\[2\]
*CELL NULL
*C2_R1_C1 2.250e-03 7.370e-03 2.250e-03 
*LOADS
*RC b_reg_2_:D 3.316e-05
*END

*R_NET i_B\[1\] 4.500e-03
*DRIVER i_B\[1\]
*CELL NULL
*C2_R1_C1 2.250e-03 7.370e-03 2.250e-03 
*LOADS
*RC b_reg_1_:D 3.316e-05
*END

*R_NET i_B\[0\] 4.500e-03
*DRIVER i_B\[0\]
*CELL NULL
*C2_R1_C1 2.250e-03 7.370e-03 2.250e-03 
*LOADS
*RC b_reg_0_:D 3.316e-05
*END

*R_NET i_AB_STB 5.630e-03
*DRIVER i_AB_STB
*CELL NULL
*C2_R1_C1 2.815e-03 7.370e-03 2.815e-03 
*LOADS
*RC U983:B 4.149e-05
*END

*R_NET o_AB_ACK 2.376e-02
*DRIVER o_AB_ACK_reg:Q
*CELL fd1qd1_hd
*C2_R1_C1 1.188e-02 9.460e-03 1.188e-02 
*LOADS
*RC U983:C 2.248e-04
*RC o_AB_ACK 2.248e-04
*RC U426:A 2.248e-04
=======
*R_NET N18 1.731e-01
*DRIVER U396:Y
*CELL nr2d4_hd
*C2_R1_C1 8.653e-02 4.172e-02 8.653e-02 
*LOADS
*RC U294:A 7.219e-03
*RC U726:A 7.219e-03
*RC U732:G 7.219e-03
*RC U734:B 7.219e-03
*RC U738:C 7.219e-03
*RC U741:A 7.219e-03
*RC U744:A 7.219e-03
*RC U747:A 7.219e-03
*RC U750:A 7.219e-03
*RC U753:A 7.219e-03
*RC U756:A 7.219e-03
*RC U759:A 7.219e-03
*RC U762:A 7.219e-03
*RC U765:A 7.219e-03
*RC U768:A 7.219e-03
*RC U771:A 7.219e-03
*RC U774:A 7.219e-03
*RC U777:A 7.219e-03
*RC U780:A 7.219e-03
*RC U783:A 7.219e-03
*RC U786:A 7.219e-03
*RC U789:A 7.219e-03
*RC U792:A 7.219e-03
*RC U794:H 7.219e-03
*RC U796:H 7.219e-03
*RC U798:F 7.219e-03
*RC U800:H 7.219e-03
*RC U801:B 7.219e-03
*RC DP_OP_154_130_6175/U14:C 7.219e-03
*RC DP_OP_154_130_6175/U3:A 7.219e-03
*RC DP_OP_154_130_6175/U4:A 7.219e-03
*RC DP_OP_154_130_6175/U5:A 7.219e-03
*RC DP_OP_154_130_6175/U6:A 7.219e-03
*RC DP_OP_154_130_6175/U7:A 7.219e-03
*RC DP_OP_154_130_6175/U8:A 7.219e-03
*RC DP_OP_154_130_6175/U9:A 7.219e-03
*RC DP_OP_154_130_6175/U10:A 7.219e-03
*END

*R_NET i_A\[31\] 4.550e-03
*DRIVER i_A\[31\]
*CELL NULL
*C2_R1_C1 2.275e-03 7.370e-03 2.275e-03 
*LOADS
*RC a_reg_31_:D 3.353e-05
*END

*R_NET i_A\[30\] 4.550e-03
*DRIVER i_A\[30\]
*CELL NULL
*C2_R1_C1 2.275e-03 7.370e-03 2.275e-03 
*LOADS
*RC a_reg_30_:D 3.353e-05
*END

*R_NET i_A\[29\] 4.550e-03
*DRIVER i_A\[29\]
*CELL NULL
*C2_R1_C1 2.275e-03 7.370e-03 2.275e-03 
*LOADS
*RC a_reg_29_:D 3.353e-05
*END

*R_NET i_A\[28\] 4.550e-03
*DRIVER i_A\[28\]
*CELL NULL
*C2_R1_C1 2.275e-03 7.370e-03 2.275e-03 
*LOADS
*RC a_reg_28_:D 3.353e-05
*END

*R_NET i_A\[27\] 4.550e-03
*DRIVER i_A\[27\]
*CELL NULL
*C2_R1_C1 2.275e-03 7.370e-03 2.275e-03 
*LOADS
*RC a_reg_27_:D 3.353e-05
*END

*R_NET i_A\[26\] 4.550e-03
*DRIVER i_A\[26\]
*CELL NULL
*C2_R1_C1 2.275e-03 7.370e-03 2.275e-03 
*LOADS
*RC a_reg_26_:D 3.353e-05
*END

*R_NET i_A\[25\] 4.550e-03
*DRIVER i_A\[25\]
*CELL NULL
*C2_R1_C1 2.275e-03 7.370e-03 2.275e-03 
*LOADS
*RC a_reg_25_:D 3.353e-05
*END

*R_NET i_A\[24\] 4.550e-03
*DRIVER i_A\[24\]
*CELL NULL
*C2_R1_C1 2.275e-03 7.370e-03 2.275e-03 
*LOADS
*RC a_reg_24_:D 3.353e-05
*END

*R_NET i_A\[23\] 4.550e-03
*DRIVER i_A\[23\]
*CELL NULL
*C2_R1_C1 2.275e-03 7.370e-03 2.275e-03 
*LOADS
*RC a_reg_23_:D 3.353e-05
*END

*R_NET i_A\[22\] 4.550e-03
*DRIVER i_A\[22\]
*CELL NULL
*C2_R1_C1 2.275e-03 7.370e-03 2.275e-03 
*LOADS
*RC a_reg_22_:D 3.353e-05
*END

*R_NET i_A\[21\] 4.550e-03
*DRIVER i_A\[21\]
*CELL NULL
*C2_R1_C1 2.275e-03 7.370e-03 2.275e-03 
*LOADS
*RC a_reg_21_:D 3.353e-05
*END

*R_NET i_A\[20\] 4.550e-03
*DRIVER i_A\[20\]
*CELL NULL
*C2_R1_C1 2.275e-03 7.370e-03 2.275e-03 
*LOADS
*RC a_reg_20_:D 3.353e-05
*END

*R_NET i_A\[19\] 4.550e-03
*DRIVER i_A\[19\]
*CELL NULL
*C2_R1_C1 2.275e-03 7.370e-03 2.275e-03 
*LOADS
*RC a_reg_19_:D 3.353e-05
*END

*R_NET i_A\[18\] 4.550e-03
*DRIVER i_A\[18\]
*CELL NULL
*C2_R1_C1 2.275e-03 7.370e-03 2.275e-03 
*LOADS
*RC a_reg_18_:D 3.353e-05
*END

*R_NET i_A\[17\] 4.550e-03
*DRIVER i_A\[17\]
*CELL NULL
*C2_R1_C1 2.275e-03 7.370e-03 2.275e-03 
*LOADS
*RC a_reg_17_:D 3.353e-05
*END

*R_NET i_A\[16\] 4.550e-03
*DRIVER i_A\[16\]
*CELL NULL
*C2_R1_C1 2.275e-03 7.370e-03 2.275e-03 
*LOADS
*RC a_reg_16_:D 3.353e-05
*END

*R_NET i_A\[15\] 4.550e-03
*DRIVER i_A\[15\]
*CELL NULL
*C2_R1_C1 2.275e-03 7.370e-03 2.275e-03 
*LOADS
*RC a_reg_15_:D 3.353e-05
*END

*R_NET i_A\[14\] 4.550e-03
*DRIVER i_A\[14\]
*CELL NULL
*C2_R1_C1 2.275e-03 7.370e-03 2.275e-03 
*LOADS
*RC a_reg_14_:D 3.353e-05
*END

*R_NET i_A\[13\] 4.550e-03
*DRIVER i_A\[13\]
*CELL NULL
*C2_R1_C1 2.275e-03 7.370e-03 2.275e-03 
*LOADS
*RC a_reg_13_:D 3.353e-05
*END

*R_NET i_A\[12\] 4.550e-03
*DRIVER i_A\[12\]
*CELL NULL
*C2_R1_C1 2.275e-03 7.370e-03 2.275e-03 
*LOADS
*RC a_reg_12_:D 3.353e-05
*END

*R_NET i_A\[11\] 4.550e-03
*DRIVER i_A\[11\]
*CELL NULL
*C2_R1_C1 2.275e-03 7.370e-03 2.275e-03 
*LOADS
*RC a_reg_11_:D 3.353e-05
*END

*R_NET i_A\[10\] 4.550e-03
*DRIVER i_A\[10\]
*CELL NULL
*C2_R1_C1 2.275e-03 7.370e-03 2.275e-03 
*LOADS
*RC a_reg_10_:D 3.353e-05
*END

*R_NET i_A\[9\] 4.550e-03
*DRIVER i_A\[9\]
*CELL NULL
*C2_R1_C1 2.275e-03 7.370e-03 2.275e-03 
*LOADS
*RC a_reg_9_:D 3.353e-05
*END

*R_NET i_A\[8\] 4.550e-03
*DRIVER i_A\[8\]
*CELL NULL
*C2_R1_C1 2.275e-03 7.370e-03 2.275e-03 
*LOADS
*RC a_reg_8_:D 3.353e-05
*END

*R_NET i_A\[7\] 4.550e-03
*DRIVER i_A\[7\]
*CELL NULL
*C2_R1_C1 2.275e-03 7.370e-03 2.275e-03 
*LOADS
*RC a_reg_7_:D 3.353e-05
*END

*R_NET i_A\[6\] 4.550e-03
*DRIVER i_A\[6\]
*CELL NULL
*C2_R1_C1 2.275e-03 7.370e-03 2.275e-03 
*LOADS
*RC a_reg_6_:D 3.353e-05
*END

*R_NET i_A\[5\] 4.550e-03
*DRIVER i_A\[5\]
*CELL NULL
*C2_R1_C1 2.275e-03 7.370e-03 2.275e-03 
*LOADS
*RC a_reg_5_:D 3.353e-05
*END

*R_NET i_A\[4\] 4.550e-03
*DRIVER i_A\[4\]
*CELL NULL
*C2_R1_C1 2.275e-03 7.370e-03 2.275e-03 
*LOADS
*RC a_reg_4_:D 3.353e-05
*END

*R_NET i_A\[3\] 4.550e-03
*DRIVER i_A\[3\]
*CELL NULL
*C2_R1_C1 2.275e-03 7.370e-03 2.275e-03 
*LOADS
*RC a_reg_3_:D 3.353e-05
*END

*R_NET i_A\[2\] 4.550e-03
*DRIVER i_A\[2\]
*CELL NULL
*C2_R1_C1 2.275e-03 7.370e-03 2.275e-03 
*LOADS
*RC a_reg_2_:D 3.353e-05
*END

*R_NET i_A\[1\] 4.550e-03
*DRIVER i_A\[1\]
*CELL NULL
*C2_R1_C1 2.275e-03 7.370e-03 2.275e-03 
*LOADS
*RC a_reg_1_:D 3.353e-05
*END

*R_NET i_A\[0\] 4.550e-03
*DRIVER i_A\[0\]
*CELL NULL
*C2_R1_C1 2.275e-03 7.370e-03 2.275e-03 
*LOADS
*RC a_reg_0_:D 3.353e-05
*END

*R_NET i_B\[31\] 4.550e-03
*DRIVER i_B\[31\]
*CELL NULL
*C2_R1_C1 2.275e-03 7.370e-03 2.275e-03 
*LOADS
*RC b_reg_31_:D 3.353e-05
*END

*R_NET i_B\[30\] 4.550e-03
*DRIVER i_B\[30\]
*CELL NULL
*C2_R1_C1 2.275e-03 7.370e-03 2.275e-03 
*LOADS
*RC b_reg_30_:D 3.353e-05
*END

*R_NET i_B\[29\] 4.550e-03
*DRIVER i_B\[29\]
*CELL NULL
*C2_R1_C1 2.275e-03 7.370e-03 2.275e-03 
*LOADS
*RC b_reg_29_:D 3.353e-05
*END

*R_NET i_B\[28\] 4.550e-03
*DRIVER i_B\[28\]
*CELL NULL
*C2_R1_C1 2.275e-03 7.370e-03 2.275e-03 
*LOADS
*RC b_reg_28_:D 3.353e-05
*END

*R_NET i_B\[27\] 4.550e-03
*DRIVER i_B\[27\]
*CELL NULL
*C2_R1_C1 2.275e-03 7.370e-03 2.275e-03 
*LOADS
*RC b_reg_27_:D 3.353e-05
*END

*R_NET i_B\[26\] 4.550e-03
*DRIVER i_B\[26\]
*CELL NULL
*C2_R1_C1 2.275e-03 7.370e-03 2.275e-03 
*LOADS
*RC b_reg_26_:D 3.353e-05
*END

*R_NET i_B\[25\] 4.550e-03
*DRIVER i_B\[25\]
*CELL NULL
*C2_R1_C1 2.275e-03 7.370e-03 2.275e-03 
*LOADS
*RC b_reg_25_:D 3.353e-05
*END

*R_NET i_B\[24\] 4.550e-03
*DRIVER i_B\[24\]
*CELL NULL
*C2_R1_C1 2.275e-03 7.370e-03 2.275e-03 
*LOADS
*RC b_reg_24_:D 3.353e-05
*END

*R_NET i_B\[23\] 4.550e-03
*DRIVER i_B\[23\]
*CELL NULL
*C2_R1_C1 2.275e-03 7.370e-03 2.275e-03 
*LOADS
*RC b_reg_23_:D 3.353e-05
*END

*R_NET i_B\[22\] 4.550e-03
*DRIVER i_B\[22\]
*CELL NULL
*C2_R1_C1 2.275e-03 7.370e-03 2.275e-03 
*LOADS
*RC b_reg_22_:D 3.353e-05
*END

*R_NET i_B\[21\] 4.550e-03
*DRIVER i_B\[21\]
*CELL NULL
*C2_R1_C1 2.275e-03 7.370e-03 2.275e-03 
*LOADS
*RC b_reg_21_:D 3.353e-05
*END

*R_NET i_B\[20\] 4.550e-03
*DRIVER i_B\[20\]
*CELL NULL
*C2_R1_C1 2.275e-03 7.370e-03 2.275e-03 
*LOADS
*RC b_reg_20_:D 3.353e-05
*END

*R_NET i_B\[19\] 4.550e-03
*DRIVER i_B\[19\]
*CELL NULL
*C2_R1_C1 2.275e-03 7.370e-03 2.275e-03 
*LOADS
*RC b_reg_19_:D 3.353e-05
*END

*R_NET i_B\[18\] 4.550e-03
*DRIVER i_B\[18\]
*CELL NULL
*C2_R1_C1 2.275e-03 7.370e-03 2.275e-03 
*LOADS
*RC b_reg_18_:D 3.353e-05
*END

*R_NET i_B\[17\] 4.550e-03
*DRIVER i_B\[17\]
*CELL NULL
*C2_R1_C1 2.275e-03 7.370e-03 2.275e-03 
*LOADS
*RC b_reg_17_:D 3.353e-05
*END

*R_NET i_B\[16\] 4.550e-03
*DRIVER i_B\[16\]
*CELL NULL
*C2_R1_C1 2.275e-03 7.370e-03 2.275e-03 
*LOADS
*RC b_reg_16_:D 3.353e-05
*END

*R_NET i_B\[15\] 4.550e-03
*DRIVER i_B\[15\]
*CELL NULL
*C2_R1_C1 2.275e-03 7.370e-03 2.275e-03 
*LOADS
*RC b_reg_15_:D 3.353e-05
*END

*R_NET i_B\[14\] 4.550e-03
*DRIVER i_B\[14\]
*CELL NULL
*C2_R1_C1 2.275e-03 7.370e-03 2.275e-03 
*LOADS
*RC b_reg_14_:D 3.353e-05
*END

*R_NET i_B\[13\] 4.550e-03
*DRIVER i_B\[13\]
*CELL NULL
*C2_R1_C1 2.275e-03 7.370e-03 2.275e-03 
*LOADS
*RC b_reg_13_:D 3.353e-05
*END

*R_NET i_B\[12\] 4.550e-03
*DRIVER i_B\[12\]
*CELL NULL
*C2_R1_C1 2.275e-03 7.370e-03 2.275e-03 
*LOADS
*RC b_reg_12_:D 3.353e-05
*END

*R_NET i_B\[11\] 4.550e-03
*DRIVER i_B\[11\]
*CELL NULL
*C2_R1_C1 2.275e-03 7.370e-03 2.275e-03 
*LOADS
*RC b_reg_11_:D 3.353e-05
*END

*R_NET i_B\[10\] 4.550e-03
*DRIVER i_B\[10\]
*CELL NULL
*C2_R1_C1 2.275e-03 7.370e-03 2.275e-03 
*LOADS
*RC b_reg_10_:D 3.353e-05
*END

*R_NET i_B\[9\] 4.550e-03
*DRIVER i_B\[9\]
*CELL NULL
*C2_R1_C1 2.275e-03 7.370e-03 2.275e-03 
*LOADS
*RC b_reg_9_:D 3.353e-05
*END

*R_NET i_B\[8\] 4.550e-03
*DRIVER i_B\[8\]
*CELL NULL
*C2_R1_C1 2.275e-03 7.370e-03 2.275e-03 
*LOADS
*RC b_reg_8_:D 3.353e-05
*END

*R_NET i_B\[7\] 4.550e-03
*DRIVER i_B\[7\]
*CELL NULL
*C2_R1_C1 2.275e-03 7.370e-03 2.275e-03 
*LOADS
*RC b_reg_7_:D 3.353e-05
*END

*R_NET i_B\[6\] 4.550e-03
*DRIVER i_B\[6\]
*CELL NULL
*C2_R1_C1 2.275e-03 7.370e-03 2.275e-03 
*LOADS
*RC b_reg_6_:D 3.353e-05
*END

*R_NET i_B\[5\] 4.550e-03
*DRIVER i_B\[5\]
*CELL NULL
*C2_R1_C1 2.275e-03 7.370e-03 2.275e-03 
*LOADS
*RC b_reg_5_:D 3.353e-05
*END

*R_NET i_B\[4\] 4.550e-03
*DRIVER i_B\[4\]
*CELL NULL
*C2_R1_C1 2.275e-03 7.370e-03 2.275e-03 
*LOADS
*RC b_reg_4_:D 3.353e-05
*END

*R_NET i_B\[3\] 4.550e-03
*DRIVER i_B\[3\]
*CELL NULL
*C2_R1_C1 2.275e-03 7.370e-03 2.275e-03 
*LOADS
*RC b_reg_3_:D 3.353e-05
*END

*R_NET i_B\[2\] 4.550e-03
*DRIVER i_B\[2\]
*CELL NULL
*C2_R1_C1 2.275e-03 7.370e-03 2.275e-03 
*LOADS
*RC b_reg_2_:D 3.353e-05
*END

*R_NET i_B\[1\] 4.550e-03
*DRIVER i_B\[1\]
*CELL NULL
*C2_R1_C1 2.275e-03 7.370e-03 2.275e-03 
*LOADS
*RC b_reg_1_:D 3.353e-05
*END

*R_NET i_B\[0\] 4.550e-03
*DRIVER i_B\[0\]
*CELL NULL
*C2_R1_C1 2.275e-03 7.370e-03 2.275e-03 
*LOADS
*RC b_reg_0_:D 3.353e-05
*END

*R_NET i_AB_STB 1.068e-02
*DRIVER i_AB_STB
*CELL NULL
*C2_R1_C1 5.340e-03 9.100e-03 5.340e-03 
*LOADS
*RC U382:B 9.719e-05
*RC U715:A 9.719e-05
*END

*R_NET o_AB_ACK 2.467e-02
*DRIVER o_AB_ACK_reg:Q
*CELL fds2eqd1_hd
*C2_R1_C1 1.234e-02 9.460e-03 1.234e-02 
*LOADS
*RC U382:C 2.334e-04
*RC U715:B 2.334e-04
*RC o_AB_ACK 2.334e-04
>>>>>>> jin
*END

*R_NET o_Z\[31\] 1.350e-02
*DRIVER o_Z_reg_31_:Q
<<<<<<< HEAD
*CELL fd1eqd1_hd
=======
*CELL fds2eqd1_hd
>>>>>>> jin
*C2_R1_C1 6.750e-03 7.370e-03 6.750e-03 
*LOADS
*RC o_Z\[31\] 9.950e-05
*END

*R_NET o_Z\[30\] 1.350e-02
*DRIVER o_Z_reg_30_:Q
<<<<<<< HEAD
*CELL fd1eqd1_hd
=======
*CELL fds2eqd1_hd
>>>>>>> jin
*C2_R1_C1 6.750e-03 7.370e-03 6.750e-03 
*LOADS
*RC o_Z\[30\] 9.950e-05
*END

*R_NET o_Z\[29\] 1.350e-02
*DRIVER o_Z_reg_29_:Q
<<<<<<< HEAD
*CELL fd1eqd1_hd
=======
*CELL fds2eqd1_hd
>>>>>>> jin
*C2_R1_C1 6.750e-03 7.370e-03 6.750e-03 
*LOADS
*RC o_Z\[29\] 9.950e-05
*END

*R_NET o_Z\[28\] 1.350e-02
*DRIVER o_Z_reg_28_:Q
<<<<<<< HEAD
*CELL fd1eqd1_hd
=======
*CELL fds2eqd1_hd
>>>>>>> jin
*C2_R1_C1 6.750e-03 7.370e-03 6.750e-03 
*LOADS
*RC o_Z\[28\] 9.950e-05
*END

*R_NET o_Z\[27\] 1.350e-02
*DRIVER o_Z_reg_27_:Q
<<<<<<< HEAD
*CELL fd1eqd1_hd
=======
*CELL fds2eqd1_hd
>>>>>>> jin
*C2_R1_C1 6.750e-03 7.370e-03 6.750e-03 
*LOADS
*RC o_Z\[27\] 9.950e-05
*END

*R_NET o_Z\[26\] 1.350e-02
*DRIVER o_Z_reg_26_:Q
<<<<<<< HEAD
*CELL fd1eqd1_hd
=======
*CELL fds2eqd1_hd
>>>>>>> jin
*C2_R1_C1 6.750e-03 7.370e-03 6.750e-03 
*LOADS
*RC o_Z\[26\] 9.950e-05
*END

*R_NET o_Z\[25\] 1.350e-02
*DRIVER o_Z_reg_25_:Q
<<<<<<< HEAD
*CELL fd1eqd1_hd
=======
*CELL fds2eqd1_hd
>>>>>>> jin
*C2_R1_C1 6.750e-03 7.370e-03 6.750e-03 
*LOADS
*RC o_Z\[25\] 9.950e-05
*END

*R_NET o_Z\[24\] 1.350e-02
*DRIVER o_Z_reg_24_:Q
<<<<<<< HEAD
*CELL fd1eqd1_hd
=======
*CELL fds2eqd1_hd
>>>>>>> jin
*C2_R1_C1 6.750e-03 7.370e-03 6.750e-03 
*LOADS
*RC o_Z\[24\] 9.950e-05
*END

*R_NET o_Z\[23\] 1.350e-02
*DRIVER o_Z_reg_23_:Q
<<<<<<< HEAD
*CELL fd1eqd1_hd
=======
*CELL fds2eqd1_hd
>>>>>>> jin
*C2_R1_C1 6.750e-03 7.370e-03 6.750e-03 
*LOADS
*RC o_Z\[23\] 9.950e-05
*END

*R_NET o_Z\[22\] 1.350e-02
*DRIVER o_Z_reg_22_:Q
<<<<<<< HEAD
*CELL fd1eqd1_hd
=======
*CELL fds2eqd1_hd
>>>>>>> jin
*C2_R1_C1 6.750e-03 7.370e-03 6.750e-03 
*LOADS
*RC o_Z\[22\] 9.950e-05
*END

*R_NET o_Z\[21\] 1.350e-02
*DRIVER o_Z_reg_21_:Q
<<<<<<< HEAD
*CELL fd1eqd1_hd
=======
*CELL fds2eqd1_hd
>>>>>>> jin
*C2_R1_C1 6.750e-03 7.370e-03 6.750e-03 
*LOADS
*RC o_Z\[21\] 9.950e-05
*END

*R_NET o_Z\[20\] 1.350e-02
*DRIVER o_Z_reg_20_:Q
<<<<<<< HEAD
*CELL fd1eqd1_hd
=======
*CELL fds2eqd1_hd
>>>>>>> jin
*C2_R1_C1 6.750e-03 7.370e-03 6.750e-03 
*LOADS
*RC o_Z\[20\] 9.950e-05
*END

*R_NET o_Z\[19\] 1.350e-02
*DRIVER o_Z_reg_19_:Q
<<<<<<< HEAD
*CELL fd1eqd1_hd
=======
*CELL fds2eqd1_hd
>>>>>>> jin
*C2_R1_C1 6.750e-03 7.370e-03 6.750e-03 
*LOADS
*RC o_Z\[19\] 9.950e-05
*END

*R_NET o_Z\[18\] 1.350e-02
*DRIVER o_Z_reg_18_:Q
<<<<<<< HEAD
*CELL fd1eqd1_hd
=======
*CELL fds2eqd1_hd
>>>>>>> jin
*C2_R1_C1 6.750e-03 7.370e-03 6.750e-03 
*LOADS
*RC o_Z\[18\] 9.950e-05
*END

*R_NET o_Z\[17\] 1.350e-02
*DRIVER o_Z_reg_17_:Q
<<<<<<< HEAD
*CELL fd1eqd1_hd
=======
*CELL fds2eqd1_hd
>>>>>>> jin
*C2_R1_C1 6.750e-03 7.370e-03 6.750e-03 
*LOADS
*RC o_Z\[17\] 9.950e-05
*END

*R_NET o_Z\[16\] 1.350e-02
*DRIVER o_Z_reg_16_:Q
<<<<<<< HEAD
*CELL fd1eqd1_hd
=======
*CELL fds2eqd1_hd
>>>>>>> jin
*C2_R1_C1 6.750e-03 7.370e-03 6.750e-03 
*LOADS
*RC o_Z\[16\] 9.950e-05
*END

*R_NET o_Z\[15\] 1.350e-02
*DRIVER o_Z_reg_15_:Q
<<<<<<< HEAD
*CELL fd1eqd1_hd
=======
*CELL fds2eqd1_hd
>>>>>>> jin
*C2_R1_C1 6.750e-03 7.370e-03 6.750e-03 
*LOADS
*RC o_Z\[15\] 9.950e-05
*END

*R_NET o_Z\[14\] 1.350e-02
*DRIVER o_Z_reg_14_:Q
<<<<<<< HEAD
*CELL fd1eqd1_hd
=======
*CELL fds2eqd1_hd
>>>>>>> jin
*C2_R1_C1 6.750e-03 7.370e-03 6.750e-03 
*LOADS
*RC o_Z\[14\] 9.950e-05
*END

*R_NET o_Z\[13\] 1.350e-02
*DRIVER o_Z_reg_13_:Q
<<<<<<< HEAD
*CELL fd1eqd1_hd
=======
*CELL fds2eqd1_hd
>>>>>>> jin
*C2_R1_C1 6.750e-03 7.370e-03 6.750e-03 
*LOADS
*RC o_Z\[13\] 9.950e-05
*END

*R_NET o_Z\[12\] 1.350e-02
*DRIVER o_Z_reg_12_:Q
<<<<<<< HEAD
*CELL fd1eqd1_hd
=======
*CELL fds2eqd1_hd
>>>>>>> jin
*C2_R1_C1 6.750e-03 7.370e-03 6.750e-03 
*LOADS
*RC o_Z\[12\] 9.950e-05
*END

*R_NET o_Z\[11\] 1.350e-02
*DRIVER o_Z_reg_11_:Q
<<<<<<< HEAD
*CELL fd1eqd1_hd