*SPEF "IEEE 1481-1999"
*DESIGN "ads1292_controller"
*DATE "Tue Jun  9 05:43:27 2020"
*VENDOR "SYNOPSYS INC"
*PROGRAM "Synopsys Design Compiler cmos"
*VERSION "F-2011.09-SP5-3"
*DESIGN_FLOW "SYNTHESIS"
*DIVIDER /
*DELIMITER :
*BUS_DELIMITER []
*T_UNIT 1.0 NS
*C_UNIT 1.0 PF
*R_UNIT 1.0 KOHM
*L_UNIT 1.0 HENRY

*PORTS

o_ADS1292_DATA_OUT\[23\] O *L 1.035e-02 *S 1.434e-01 1.217e-01 
o_ADS1292_DATA_OUT\[22\] O *L 1.035e-02 *S 1.434e-01 1.217e-01 
o_ADS1292_DATA_OUT\[21\] O *L 1.035e-02 *S 1.434e-01 1.217e-01 
o_ADS1292_DATA_OUT\[20\] O *L 1.035e-02 *S 1.434e-01 1.217e-01 
o_ADS1292_DATA_OUT\[19\] O *L 1.035e-02 *S 1.434e-01 1.217e-01 
o_ADS1292_DATA_OUT\[18\] O *L 1.035e-02 *S 1.434e-01 1.217e-01 
o_ADS1292_DATA_OUT\[17\] O *L 1.035e-02 *S 1.434e-01 1.217e-01 
o_ADS1292_DATA_OUT\[16\] O *L 1.035e-02 *S 1.434e-01 1.217e-01 
o_ADS1292_DATA_OUT\[15\] O *L 1.035e-02 *S 1.434e-01 1.217e-01 
o_ADS1292_DATA_OUT\[14\] O *L 1.035e-02 *S 1.434e-01 1.217e-01 
o_ADS1292_DATA_OUT\[13\] O *L 1.035e-02 *S 1.434e-01 1.217e-01 
o_ADS1292_DATA_OUT\[12\] O *L 1.035e-02 *S 1.434e-01 1.217e-01 
o_ADS1292_DATA_OUT\[11\] O *L 1.035e-02 *S 1.434e-01 1.217e-01 
o_ADS1292_DATA_OUT\[10\] O *L 1.035e-02 *S 1.434e-01 1.217e-01 
o_ADS1292_DATA_OUT\[9\] O *L 1.035e-02 *S 1.434e-01 1.217e-01 
o_ADS1292_DATA_OUT\[8\] O *L 1.035e-02 *S 1.434e-01 1.217e-01 
o_ADS1292_DATA_OUT\[7\] O *L 1.035e-02 *S 1.434e-01 1.217e-01 
o_ADS1292_DATA_OUT\[6\] O *L 1.035e-02 *S 1.434e-01 1.217e-01 
o_ADS1292_DATA_OUT\[5\] O *L 1.035e-02 *S 1.434e-01 1.217e-01 
o_ADS1292_DATA_OUT\[4\] O *L 1.035e-02 *S 1.434e-01 1.217e-01 
o_ADS1292_DATA_OUT\[3\] O *L 1.035e-02 *S 1.434e-01 1.217e-01 
o_ADS1292_DATA_OUT\[2\] O *L 1.035e-02 *S 1.434e-01 1.217e-01 
o_ADS1292_DATA_OUT\[1\] O *L 1.035e-02 *S 1.434e-01 1.217e-01 
o_ADS1292_DATA_OUT\[0\] O *L 1.035e-02 *S 1.434e-01 1.217e-01 
i_ADS1292_CONTROL\[2\] I *L 1.900e-03 *S 5.873e-01 4.932e-01 *D fd4qd1_hd 
i_ADS1292_CONTROL\[1\] I *L 1.900e-03 *S 5.989e-01 5.008e-01 *D fd4qd1_hd 
i_ADS1292_CONTROL\[0\] I *L 1.900e-03 *S 3.621e-01 3.451e-01 *D fd4qd1_hd 
i_ADS1292_REG_ADDR\[7\] I *L 1.900e-03 *S 1.462e-01 1.661e-01 *D fd4qd1_hd 
i_ADS1292_REG_ADDR\[6\] I *L 1.900e-03 *S 1.462e-01 1.661e-01 *D fd4qd1_hd 
i_ADS1292_REG_ADDR\[5\] I *L 1.900e-03 *S 1.462e-01 1.661e-01 *D fd4qd1_hd 
i_ADS1292_REG_ADDR\[4\] I *L 1.900e-03 *S 1.506e-01 1.704e-01 *D fd4qd1_hd 
i_ADS1292_REG_ADDR\[3\] I *L 1.900e-03 *S 1.506e-01 1.704e-01 *D fd4qd1_hd 
i_ADS1292_REG_ADDR\[2\] I *L 1.900e-03 *S 1.506e-01 1.704e-01 *D fd4qd1_hd 
i_ADS1292_REG_ADDR\[1\] I *L 1.900e-03 *S 1.506e-01 1.704e-01 *D fd4qd1_hd 
i_ADS1292_REG_ADDR\[0\] I *L 1.900e-03 *S 1.506e-01 1.704e-01 *D fd4qd1_hd 
i_ADS1292_DATA_IN\[7\] I *L 1.900e-03 *S 1.471e-01 1.670e-01 *D fd4qd1_hd 
i_ADS1292_DATA_IN\[6\] I *L 1.900e-03 *S 1.471e-01 1.670e-01 *D fd4qd1_hd 
i_ADS1292_DATA_IN\[5\] I *L 1.900e-03 *S 1.471e-01 1.670e-01 *D fd4qd1_hd 
i_ADS1292_DATA_IN\[4\] I *L 1.900e-03 *S 1.471e-01 1.670e-01 *D fd4qd1_hd 
i_ADS1292_DATA_IN\[3\] I *L 1.900e-03 *S 1.471e-01 1.670e-01 *D fd4qd1_hd 
i_ADS1292_DATA_IN\[2\] I *L 1.900e-03 *S 1.471e-01 1.670e-01 *D fd4qd1_hd 
i_ADS1292_DATA_IN\[1\] I *L 1.900e-03 *S 1.471e-01 1.670e-01 *D fd4qd1_hd 
i_ADS1292_DATA_IN\[0\] I *L 1.900e-03 *S 1.471e-01 1.670e-01 *D fd4qd1_hd 
o_ADS1292_REG_DATA_OUT\[7\] O *L 1.035e-02 *S 1.434e-01 1.217e-01 
o_ADS1292_REG_DATA_OUT\[6\] O *L 1.035e-02 *S 1.434e-01 1.217e-01 
o_ADS1292_REG_DATA_OUT\[5\] O *L 1.035e-02 *S 1.434e-01 1.217e-01 
o_ADS1292_REG_DATA_OUT\[4\] O *L 1.035e-02 *S 1.434e-01 1.217e-01 
o_ADS1292_REG_DATA_OUT\[3\] O *L 1.035e-02 *S 1.434e-01 1.217e-01 
o_ADS1292_REG_DATA_OUT\[2\] O *L 1.035e-02 *S 1.434e-01 1.217e-01 
o_ADS1292_REG_DATA_OUT\[1\] O *L 1.035e-02 *S 1.434e-01 1.217e-01 
o_ADS1292_REG_DATA_OUT\[0\] O *L 1.035e-02 *S 1.434e-01 1.217e-01 
o_ADS1292_INIT_SET O *L 1.035e-02 *S 2.158e-01 2.297e-01 
o_ADS1292_DATA_VALID O *L 1.035e-02 *S 2.158e-01 2.297e-01 
o_ADS1292_BUSY O *L 1.035e-02 *S 3.711e-01 3.512e-01 
o_SPI_CLK O *L 1.035e-02 *S 2.853e-01 2.847e-01 
i_SPI_MISO I *L 0.000e+00 *S 0.000e+00 0.000e+00 
o_SPI_MOSI O *L 1.035e-02 *S 2.188e-01 2.321e-01 
i_ADS1292_DRDY I *L 0.000e+00 *S 0.000e+00 0.000e+00 
o_ADS1292_RESET O *L 1.035e-02 *S 2.176e-01 1.602e-01 
o_ADS1292_START O *L 1.035e-02 *S 2.243e-01 2.365e-01 
o_SPI_CSN O *L 1.035e-02 *S 2.141e-01 1.580e-01 
i_CLK I *L 0.000e+00 *S 0.000e+00 0.000e+00 
i_RSTN I *L 2.861e+00 *S 0.000e+00 0.000e+00 

*R_NET i_ADS1292_CONTROL\[2\] 6.940e-02
*DRIVER i_ADS1292_CONTROL\[2\]
*CELL fd4qd1_hd
*C2_R1_C1 3.470e-02 2.706e-02 3.470e-02 
*LOADS
*RC U638:A 1.878e-03
*RC U637:A 1.878e-03
*RC U629:D 1.878e-03
*RC U628:D 1.878e-03
*RC U626:A 1.878e-03
*RC U447:B 1.878e-03
*RC U446:B 1.878e-03
*END

*R_NET i_ADS1292_CONTROL\[1\] 7.086e-02
*DRIVER i_ADS1292_CONTROL\[1\]
*CELL fd4qd1_hd
*C2_R1_C1 3.543e-02 2.706e-02 3.543e-02 
*LOADS
*RC U639:B 1.917e-03
*RC U638:B 1.917e-03
*RC U636:A 1.917e-03
*RC U629:C 1.917e-03
*RC U628:C 1.917e-03
*RC U627:B 1.917e-03
*RC U626:B 1.917e-03
*END

*R_NET i_ADS1292_CONTROL\[0\] 4.111e-02
*DRIVER i_ADS1292_CONTROL\[0\]
*CELL fd4qd1_hd
*C2_R1_C1 2.056e-02 2.126e-02 2.056e-02 
*LOADS
*RC U640:A 8.740e-04
*RC U634:B 8.740e-04
*RC U627:A 8.740e-04
*RC U447:A 8.740e-04
*END

*R_NET i_ADS1292_REG_ADDR\[7\] 1.452e-02
*DRIVER i_ADS1292_REG_ADDR\[7\]
*CELL fd4qd1_hd
*C2_R1_C1 7.260e-03 1.275e-02 7.260e-03 
*LOADS
*RC U389:D 1.851e-04
*END

*R_NET i_ADS1292_REG_ADDR\[6\] 1.452e-02
*DRIVER i_ADS1292_REG_ADDR\[6\]
*CELL fd4qd1_hd
*C2_R1_C1 7.260e-03 1.275e-02 7.260e-03 
*LOADS
*RC U388:D 1.851e-04
*END

*R_NET i_ADS1292_REG_ADDR\[5\] 1.452e-02
*DRIVER i_ADS1292_REG_ADDR\[5\]
*CELL fd4qd1_hd
*C2_R1_C1 7.260e-03 1.275e-02 7.260e-03 
*LOADS
*RC U387:D 1.851e-04
*END

*R_NET i_ADS1292_REG_ADDR\[4\] 1.504e-02
*DRIVER i_ADS1292_REG_ADDR\[4\]
*CELL fd4qd1_hd
*C2_R1_C1 7.520e-03 1.275e-02 7.520e-03 
*LOADS
*RC U455:B 1.918e-04
*END

*R_NET i_ADS1292_REG_ADDR\[3\] 1.504e-02
*DRIVER i_ADS1292_REG_ADDR\[3\]
*CELL fd4qd1_hd
*C2_R1_C1 7.520e-03 1.275e-02 7.520e-03 
*LOADS
*RC U457:B 1.918e-04
*END

*R_NET i_ADS1292_REG_ADDR\[2\] 1.504e-02
*DRIVER i_ADS1292_REG_ADDR\[2\]
*CELL fd4qd1_hd
*C2_R1_C1 7.520e-03 1.275e-02 7.520e-03 
*LOADS
*RC U458:B 1.918e-04
*END

*R_NET i_ADS1292_REG_ADDR\[1\] 1.504e-02
*DRIVER i_ADS1292_REG_ADDR\[1\]
*CELL fd4qd1_hd
*C2_R1_C1 7.520e-03 1.275e-02 7.520e-03 
*LOADS
*RC U459:B 1.918e-04
*END

*R_NET i_ADS1292_REG_ADDR\[0\] 1.504e-02
*DRIVER i_ADS1292_REG_ADDR\[0\]
*CELL fd4qd1_hd
*C2_R1_C1 7.520e-03 1.275e-02 7.520e-03 
*LOADS
*RC U456:B 1.918e-04
*END

*R_NET i_ADS1292_DATA_IN\[7\] 1.463e-02
*DRIVER i_ADS1292_DATA_IN\[7\]
*CELL fd4qd1_hd
*C2_R1_C1 7.315e-03 1.275e-02 7.315e-03 
*LOADS
*RC U441:B 1.865e-04
*END

*R_NET i_ADS1292_DATA_IN\[6\] 1.463e-02
*DRIVER i_ADS1292_DATA_IN\[6\]
*CELL fd4qd1_hd
*C2_R1_C1 7.315e-03 1.275e-02 7.315e-03 
*LOADS
*RC U440:B 1.865e-04
*END

*R_NET i_ADS1292_DATA_IN\[5\] 1.463e-02
*DRIVER i_ADS1292_DATA_IN\[5\]
*CELL fd4qd1_hd
*C2_R1_C1 7.315e-03 1.275e-02 7.315e-03 
*LOADS
*RC U439:B 1.865e-04
*END

*R_NET i_ADS1292_DATA_IN\[4\] 1.463e-02
*DRIVER i_ADS1292_DATA_IN\[4\]
*CELL fd4qd1_hd
*C2_R1_C1 7.315e-03 1.275e-02 7.315e-03 
*LOADS
*RC U438:B 1.865e-04
*END

*R_NET i_ADS1292_DATA_IN\[3\] 1.463e-02
*DRIVER i_ADS1292_DATA_IN\[3\]
*CELL fd4qd1_hd
*C2_R1_C1 7.315e-03 1.275e-02 7.315e-03 
*LOADS
*RC U437:B 1.865e-04
*END

*R_NET i_ADS1292_DATA_IN\[2\] 1.463e-02
*DRIVER i_ADS1292_DATA_IN\[2\]
*CELL fd4qd1_hd
*C2_R1_C1 7.315e-03 1.275e-02 7.315e-03 
*LOADS
*RC U436:B 1.865e-04
*END

*R_NET i_ADS1292_DATA_IN\[1\] 1.463e-02
*DRIVER i_ADS1292_DATA_IN\[1\]
*CELL fd4qd1_hd
*C2_R1_C1 7.315e-03 1.275e-02 7.315e-03 
*LOADS
*RC U435:B 1.865e-04
*END

*R_NET i_ADS1292_DATA_IN\[0\] 1.463e-02
*DRIVER i_ADS1292_DATA_IN\[0\]
*CELL fd4qd1_hd
*C2_R1_C1 7.315e-03 1.275e-02 7.315e-03 
*LOADS
*RC U434:B 1.865e-04
*END

*R_NET i_SPI_MISO 6.601e-02
*DRIVER i_SPI_MISO
*CELL NULL
*C2_R1_C1 3.300e-02 2.706e-02 3.300e-02 
*LOADS
*RC spi_master/U177:D1 1.786e-03
*RC spi_master/U172:D1 1.786e-03
*RC spi_master/U169:D1 1.786e-03
*RC spi_master/U166:D1 1.786e-03
*RC spi_master/U163:D1 1.786e-03
*RC spi_master/U160:D1 1.786e-03
*RC spi_master/U157:D1 1.786e-03
*RC spi_master/U154:D1 1.786e-03
*END

*R_NET i_ADS1292_DRDY 4.117e-02
*DRIVER i_ADS1292_DRDY
*CELL NULL
*C2_R1_C1 2.059e-02 2.126e-02 2.059e-02 
*LOADS
*RC clk_r_REG149_S1:D 8.753e-04
*RC U839:A 8.753e-04
*RC U811:B 8.753e-04
*RC U758:B 8.753e-04
*RC U652:AN 8.753e-04
*END

*R_NET i_CLK 2.318e-01
*DRIVER i_CLK
*CELL NULL
*C2_R1_C1 1.159e-01 0.000e+00 1.159e-01 
*LOADS
*RC clk_gate_clk_r_REG96_S12/latch:CK 0.000e+00
*RC clk_gate_clk_r_REG83_S11/latch:CK 0.000e+00
*RC clk_gate_clk_r_REG8_S10/latch:CK 0.000e+00
*RC clk_gate_clk_r_REG10_S11/latch:CK 0.000e+00
*RC spi_master/clk_gate_clk_r_REG34_S2/latch:CK 0.000e+00
*RC spi_master/clk_gate_clk_r_REG0_S1/latch:CK 0.000e+00
*RC spi_master/clk_gate_clk_r_REG53_S2/latch:CK 0.000e+00
*RC clk_r_REG68_S5:CK 0.000e+00
*RC clk_r_REG67_S11:CK 0.000e+00
*RC clk_r_REG79_S12:CK 0.000e+00
*RC clk_r_REG6_S4:CK 0.000e+00
*RC clk_r_REG147_S1:CK 0.000e+00
*RC clk_r_REG148_S1:CK 0.000e+00
*RC clk_r_REG145_S1:CK 0.000e+00
*RC clk_r_REG144_S1:CK 0.000e+00
*RC clk_r_REG0_S1:CK 0.000e+00
*RC clk_r_REG146_S1:CK 0.000e+00
*RC clk_r_REG101_S12:CK 0.000e+00
*RC clk_r_REG120_S13:CK 0.000e+00
*RC clk_r_REG116_S13:CK 0.000e+00
*RC clk_r_REG119_S13:CK 0.000e+00
*RC clk_r_REG118_S13:CK 0.000e+00
*RC clk_r_REG117_S13:CK 0.000e+00
*RC clk_r_REG115_S13:CK 0.000e+00
*RC clk_r_REG114_S13:CK 0.000e+00
*RC clk_r_REG113_S13:CK 0.000e+00
*RC clk_r_REG112_S13:CK 0.000e+00
*RC clk_r_REG111_S13:CK 0.000e+00
*RC clk_r_REG110_S13:CK 0.000e+00
*RC clk_r_REG109_S13:CK 0.000e+00
*RC clk_r_REG108_S13:CK 0.000e+00
*RC clk_r_REG97_S12:CK 0.000e+00
*RC clk_r_REG105_S13:CK 0.000e+00
*RC clk_r_REG69_S10:CK 0.000e+00
*RC clk_r_REG86_S12:CK 0.000e+00
*RC clk_r_REG2_S2:CK 0.000e+00
*RC clk_r_REG1_S2:CK 0.000e+00
*RC clk_r_REG104_S13:CK 0.000e+00
*RC clk_r_REG3_S2:CK 0.000e+00
*RC clk_r_REG100_S12:CK 0.000e+00
*RC clk_r_REG99_S12:CK 0.000e+00
*RC clk_r_REG98_S12:CK 0.000e+00
*RC clk_r_REG62_S12:CK 0.000e+00
*RC clk_r_REG60_S11:CK 0.000e+00
*RC clk_r_REG58_S10:CK 0.000e+00
*RC clk_r_REG55_S12:CK 0.000e+00
*RC clk_r_REG53_S11:CK 0.000e+00
*RC clk_r_REG51_S10:CK 0.000e+00
*RC clk_r_REG48_S12:CK 0.000e+00
*RC clk_r_REG46_S11:CK 0.000e+00
*RC clk_r_REG44_S10:CK 0.000e+00
*RC clk_r_REG41_S12:CK 0.000e+00
*RC clk_r_REG39_S11:CK 0.000e+00
*RC clk_r_REG37_S10:CK 0.000e+00
*RC clk_r_REG34_S12:CK 0.000e+00
*RC clk_r_REG32_S11:CK 0.000e+00
*RC clk_r_REG30_S10:CK 0.000e+00
*RC clk_r_REG27_S12:CK 0.000e+00
*RC clk_r_REG25_S11:CK 0.000e+00
*RC clk_r_REG23_S10:CK 0.000e+00
*RC clk_r_REG20_S12:CK 0.000e+00
*RC clk_r_REG18_S11:CK 0.000e+00
*RC clk_r_REG16_S10:CK 0.000e+00
*RC clk_r_REG13_S12:CK 0.000e+00
*RC clk_r_REG11_S11:CK 0.000e+00
*RC clk_r_REG9_S10:CK 0.000e+00
*RC clk_r_REG4_S3:CK 0.000e+00
*RC clk_r_REG7_S5:CK 0.000e+00
*RC clk_r_REG139_S11:CK 0.000e+00
*RC clk_r_REG138_S11:CK 0.000e+00
*RC clk_r_REG137_S11:CK 0.000e+00
*RC clk_r_REG136_S11:CK 0.000e+00
*RC clk_r_REG135_S11:CK 0.000e+00
*RC clk_r_REG132_S11:CK 0.000e+00
*RC clk_r_REG131_S11:CK 0.000e+00
*RC clk_r_REG130_S11:CK 0.000e+00
*RC clk_r_REG149_S1:CK 0.000e+00
*RC clk_r_REG70_S11:CK 0.000e+00
*RC clk_r_REG71_S11:CK 0.000e+00
*RC clk_r_REG72_S11:CK 0.000e+00
*RC clk_r_REG73_S11:CK 0.000e+00
*RC clk_r_REG74_S11:CK 0.000e+00
*RC clk_r_REG75_S11:CK 0.000e+00
*RC clk_r_REG76_S11:CK 0.000e+00
*RC clk_r_REG77_S11:CK 0.000e+00
*RC clk_r_REG78_S11:CK 0.000e+00
*RC clk_r_REG121_S11:CK 0.000e+00
*RC clk_r_REG122_S11:CK 0.000e+00
*RC clk_r_REG123_S11:CK 0.000e+00
*RC clk_r_REG124_S11:CK 0.000e+00
*RC clk_r_REG66_S10:CK 0.000e+00
*RC clk_r_REG125_S11:CK 0.000e+00
*RC clk_r_REG143_S11:CK 0.000e+00
*RC clk_r_REG95_S4:CK 0.000e+00
*RC clk_r_REG5_S4:CK 0.000e+00
*RC clk_r_REG87_S13:CK 0.000e+00
*RC clk_r_REG89_S13:CK 0.000e+00
*RC clk_r_REG91_S4:CK 0.000e+00
*RC clk_r_REG92_S4:CK 0.000e+00
*RC clk_r_REG93_S4:CK 0.000e+00
*RC clk_r_REG65_S10:CK 0.000e+00
*RC clk_r_REG142_S11:CK 0.000e+00
*RC clk_r_REG64_S10:CK 0.000e+00
*RC clk_r_REG141_S11:CK 0.000e+00
*RC clk_r_REG94_S4:CK 0.000e+00
*RC clk_r_REG126_S11:CK 0.000e+00
*RC clk_r_REG127_S11:CK 0.000e+00
*RC clk_r_REG128_S11:CK 0.000e+00
*RC clk_r_REG129_S11:CK 0.000e+00
*RC spi_master/clk_r_REG10_S1:CK 0.000e+00
*RC spi_master/clk_r_REG9_S1:CK 0.000e+00
*RC spi_master/clk_r_REG25_S4:CK 0.000e+00
*RC spi_master/clk_r_REG48_S2:CK 0.000e+00
*RC spi_master/clk_r_REG46_S2:CK 0.000e+00
*RC spi_master/clk_r_REG50_S2:CK 0.000e+00
*RC spi_master/clk_r_REG52_S2:CK 0.000e+00
*RC spi_master/clk_r_REG18_S2:CK 0.000e+00
*END

*R_NET n704 4.750e-03
*DRIVER U445:Y
*CELL scg2d1_hd
*C2_R1_C1 2.375e-03 7.370e-03 2.375e-03 
*LOADS
*RC clk_r_REG101_S12:D 3.501e-05
*END

*R_NET n705 4.750e-03
*DRIVER U624:Y
*CELL oa22ad1_hd
*C2_R1_C1 2.375e-03 7.370e-03 2.375e-03 
*LOADS
*RC clk_r_REG64_S10:D 3.501e-05
*END

*R_NET n706 4.750e-03
*DRIVER U619:Y
*CELL oa22d1_hd
*C2_R1_C1 2.375e-03 7.370e-03 2.375e-03 
*LOADS
*RC clk_r_REG2_S2:D 3.501e-05
*END

*R_NET o_SPI_CLK 3.163e-02
*DRIVER spi_master/clk_r_REG35_S2:Q
*CELL fd4qd1_hd
*C2_R1_C1 1.581e-02 1.469e-02 1.581e-02 
*LOADS
*RC spi_master/U153:A 4.646e-04
*RC spi_master/U152:D0 4.646e-04
*RC o_SPI_CLK 4.646e-04
*END

*R_NET o_SPI_MOSI 2.335e-02
*DRIVER spi_master/clk_r_REG1_S2:Q
*CELL fd4qd1_hd
*C2_R1_C1 1.168e-02 1.275e-02 1.168e-02 
*LOADS
*RC spi_master/U175:D0 2.977e-04
*RC o_SPI_MOSI 2.977e-04
*END

*R_NET n707 4.620e-03
*DRIVER U448:Y
*CELL clknd2d1_hd
*C2_R1_C1 2.310e-03 7.370e-03 2.310e-03 
*LOADS
*RC clk_r_REG90_S4:D 3.405e-05
*END

*R_NET n708 4.750e-03
*DRIVER U621:Y
*CELL oa211d1_hd
*C2_R1_C1 2.375e-03 7.370e-03 2.375e-03 
*LOADS
*RC clk_r_REG1_S2:D 3.501e-05
*END

*R_NET n709 4.620e-03
*DRIVER U653:Y
*CELL oa211d1_hd
*C2_R1_C1 2.310e-03 7.370e-03 2.310e-03 
*LOADS
*RC clk_r_REG80_S13:D 3.405e-05
*END

*R_NET r_spi_data_in_valid 4.750e-03
*DRIVER U614:Y
*CELL oa22ad1_hd
*C2_R1_C1 2.375e-03 7.370e-03 2.375e-03 
*LOADS
*RC clk_r_REG7_S5:D 3.501e-05
*END

*R_NET w_spi_data_in_ready 7.104e-02
*DRIVER spi_master/U255:Y
*CELL nr2ad1_hd
*C2_R1_C1 3.552e-02 2.237e-02 3.552e-02 
*LOADS
*RC spi_master/U253:A 1.589e-03
*RC spi_master/U131:A 1.589e-03
*RC spi_master/U50:C 1.589e-03
*RC spi_master/U49:C 1.589e-03
*RC spi_master/U46:C 1.589e-03
*RC spi_master/U45:C 1.589e-03
*RC U483:B 1.589e-03
*RC U838:A 1.589e-03
*RC U832:B 1.589e-03
*RC U772:A 1.589e-03
*RC U749:A 1.589e-03
*RC U726:A 1.589e-03
*RC U721:A 1.589e-03
*RC U713:A 1.589e-03
*RC U698:B 1.589e-03
*END

*R_NET w_spi_data_out_valid 2.796e-02
*DRIVER spi_master/clk_r_REG25_S4:Q
*CELL fd4qd1_hd
*C2_R1_C1 1.398e-02 1.549e-02 1.398e-02 
*LOADS
*RC U866:A 4.331e-04
*RC U790:C 4.331e-04
*RC U753:B 4.331e-04
*RC U710:C 4.331e-04
*RC U357:B 4.331e-04
*END

*R_NET r_idle_mode 4.750e-03
*DRIVER U630:Y
*CELL oa22d1_hd
*C2_R1_C1 2.375e-03 7.370e-03 2.375e-03 
*LOADS
*RC clk_r_REG146_S1:D 3.501e-05
*END

*R_NET r_syscmd_mode 4.750e-03
*DRIVER U633:Y
*CELL oa22d1_hd
*C2_R1_C1 2.375e-03 7.370e-03 2.375e-03 
*LOADS
*RC clk_r_REG147_S1:D 3.501e-05
*END

*R_NET r_wreg_mode 4.750e-03
*DRIVER U638:Y
*CELL ao21d1_hd
*C2_R1_C1 2.375e-03 7.370e-03 2.375e-03 
*LOADS
*RC clk_r_REG148_S1:D 3.501e-05
*END

*R_NET r_rreg_mode 4.750e-03
*DRIVER U626:Y
*CELL ao21d1_hd
*C2_R1_C1 2.375e-03 7.370e-03 2.375e-03 
*LOADS
*RC clk_r_REG145_S1:D 3.501e-05
*END

*R_NET r_rdatac_mode 4.750e-03
*DRIVER U628:Y
*CELL ao22d1_hd
*C2_R1_C1 2.375e-03 7.370e-03 2.375e-03 
*LOADS
*RC clk_r_REG0_S1:D 3.501e-05
*END

*R_NET r_sdatac_mode 4.750e-03
*DRIVER U629:Y
*CELL ao22d1_hd
*C2_R1_C1 2.375e-03 7.370e-03 2.375e-03 
*LOADS
*RC clk_r_REG144_S1:D 3.501e-05
*END

*R_NET N329 4.680e-03
*DRIVER add_x_2/U36:Y
*CELL ivd1_hd
*C2_R1_C1 2.340e-03 7.370e-03 2.340e-03 
*LOADS
*RC U391:C 3.449e-05
*END

*R_NET N330 4.680e-03
*DRIVER add_x_2/U31:S
*CELL had1_hd
*C2_R1_C1 2.340e-03 7.370e-03 2.340e-03 
*LOADS
*RC U392:C 3.449e-05
*END

*R_NET N331 4.680e-03
*DRIVER add_x_2/U30:S
*CELL had1_hd
*C2_R1_C1 2.340e-03 7.370e-03 2.340e-03 
*LOADS
*RC U393:C 3.449e-05
*END

*R_NET N332 4.680e-03
*DRIVER add_x_2/U29:S
*CELL had1_hd
*C2_R1_C1 2.340e-03 7.370e-03 2.340e-03 
*LOADS
*RC U394:C 3.449e-05
*END

*R_NET N333 4.680e-03
*DRIVER add_x_2/U28:S
*CELL had1_hd
*C2_R1_C1 2.340e-03 7.370e-03 2.340e-03 
*LOADS
*RC U395:C 3.449e-05
*END

*R_NET N334 4.680e-03
*DRIVER add_x_2/U27:S
*CELL had1_hd
*C2_R1_C1 2.340e-03 7.370e-03 2.340e-03 
*LOADS
*RC U396:C 3.449e-05
*END

*R_NET N335 4.680e-03
*DRIVER add_x_2/U26:S
*CELL had1_hd
*C2_R1_C1 2.340e-03 7.370e-03 2.340e-03 
*LOADS
*RC U397:C 3.449e-05
*END

*R_NET N336 4.680e-03
*DRIVER add_x_2/U25:S
*CELL had1_hd
*C2_R1_C1 2.340e-03 7.370e-03 2.340e-03 
*LOADS
*RC U398:C 3.449e-05
*END

*R_NET N337 4.680e-03
*DRIVER add_x_2/U24:S
*CELL had1_hd
*C2_R1_C1 2.340e-03 7.370e-03 2.340e-03 
*LOADS
*RC U399:C 3.449e-05
*END

*R_NET N338 4.680e-03
*DRIVER add_x_2/U23:S
*CELL had1_hd
*C2_R1_C1 2.340e-03 7.370e-03 2.340e-03 
*LOADS
*RC U400:C 3.449e-05
*END

*R_NET N339 4.680e-03
*DRIVER add_x_2/U22:S
*CELL had1_hd
*C2_R1_C1 2.340e-03 7.370e-03 2.340e-03 
*LOADS
*RC U401:C 3.449e-05
*END

*R_NET N340 4.680e-03
*DRIVER add_x_2/U21:S
*CELL had1_hd
*C2_R1_C1 2.340e-03 7.370e-03 2.340e-03 
*LOADS
*RC U402:C 3.449e-05
*END

*R_NET N341 4.680e-03
*DRIVER add_x_2/U20:S
*CELL had1_hd
*C2_R1_C1 2.340e-03 7.370e-03 2.340e-03 
*LOADS
*RC U403:C 3.449e-05
*END

*R_NET N342 4.680e-03
*DRIVER add_x_2/U19:S
*CELL had1_hd
*C2_R1_C1 2.340e-03 7.370e-03 2.340e-03 
*LOADS
*RC U404:C 3.449e-05
*END

*R_NET N343 4.680e-03
*DRIVER add_x_2/U18:S
*CELL had1_hd
*C2_R1_C1 2.340e-03 7.370e-03 2.340e-03 
*LOADS
*RC U405:C 3.449e-05
*END

*R_NET N344 4.680e-03
*DRIVER add_x_2/U17:S
*CELL had1_hd
*C2_R1_C1 2.340e-03 7.370e-03 2.340e-03 
*LOADS
*RC U406:C 3.449e-05
*END

*R_NET N345 4.680e-03
*DRIVER add_x_2/U16:S
*CELL had1_hd
*C2_R1_C1 2.340e-03 7.370e-03 2.340e-03 
*LOADS
*RC U407:C 3.449e-05
*END

*R_NET N346 4.680e-03
*DRIVER add_x_2/U15:S
*CELL had1_hd
*C2_R1_C1 2.340e-03 7.370e-03 2.340e-03 
*LOADS
*RC U408:C 3.449e-05
*END

*R_NET N347 4.680e-03
*DRIVER add_x_2/U14:S
*CELL had1_hd
*C2_R1_C1 2.340e-03 7.370e-03 2.340e-03 
*LOADS
*RC U390:C 3.449e-05
*END

*R_NET N348 4.680e-03
*DRIVER add_x_2/U13:S
*CELL had1_hd
*C2_R1_C1 2.340e-03 7.370e-03 2.340e-03 
*LOADS
*RC U382:C 3.449e-05
*END

*R_NET N349 4.680e-03
*DRIVER add_x_2/U12:S
*CELL had1_hd
*C2_R1_C1 2.340e-03 7.370e-03 2.340e-03 
*LOADS
*RC U381:C 3.449e-05
*END

*R_NET N350 4.680e-03
*DRIVER add_x_2/U11:S
*CELL had1_hd
*C2_R1_C1 2.340e-03 7.370e-03 2.340e-03 
*LOADS
*RC U380:C 3.449e-05
*END

*R_NET N351 4.680e-03
*DRIVER add_x_2/U10:S
*CELL had1_hd
*C2_R1_C1 2.340e-03 7.370e-03 2.340e-03 
*LOADS
*RC U378:C 3.449e-05
*END

*R_NET N352 4.680e-03
*DRIVER add_x_2/U9:S
*CELL had1_hd
*C2_R1_C1 2.340e-03 7.370e-03 2.340e-03 
*LOADS
*RC U377:C 3.449e-05
*END

*R_NET N353 4.680e-03
*DRIVER add_x_2/U8:S
*CELL had1_hd
*C2_R1_C1 2.340e-03 7.370e-03 2.340e-03 
*LOADS
*RC U376:C 3.449e-05
*END

*R_NET N354 4.680e-03
*DRIVER add_x_2/U7:S
*CELL had1_hd
*C2_R1_C1 2.340e-03 7.370e-03 2.340e-03 
*LOADS
*RC U375:C 3.449e-05
*END

*R_NET N355 4.680e-03
*DRIVER add_x_2/U6:S
*CELL had1_hd
*C2_R1_C1 2.340e-03 7.370e-03 2.340e-03 
*LOADS
*RC U374:C 3.449e-05
*END

*R_NET N356 4.680e-03
*DRIVER add_x_2/U5:S
*CELL had1_hd
*C2_R1_C1 2.340e-03 7.370e-03 2.340e-03 
*LOADS
*RC U373:C 3.449e-05
*END

*R_NET N357 4.680e-03
*DRIVER add_x_2/U4:S
*CELL had1_hd
*C2_R1_C1 2.340e-03 7.370e-03 2.340e-03 
*LOADS
*RC U372:C 3.449e-05
*END

*R_NET N358 4.680e-03
*DRIVER add_x_2/U3:S
*CELL had1_hd
*C2_R1_C1 2.340e-03 7.370e-03 2.340e-03 
*LOADS
*RC U371:C 3.449e-05
*END

*R_NET N359 4.680e-03
*DRIVER add_x_2/U2:S
*CELL had1_hd
*C2_R1_C1 2.340e-03 7.370e-03 2.340e-03 
*LOADS
*RC U370:C 3.449e-05
*END

*R_NET N360 4.680e-03
*DRIVER add_x_2/U35:Y
*CELL xo2d1_hd
*C2_R1_C1 2.340e-03 7.370e-03 2.340e-03 
*LOADS
*RC U369:C 3.449e-05
*END

*R_NET N873 3.348e-02
*DRIVER U872:Y
*CELL ivd1_hd
*C2_R1_C1 1.674e-02 1.674e-02 1.674e-02 
*LOADS
*RC U852:B 5.605e-04
*RC U864:B 5.605e-04
*RC U717:D 5.605e-04
*RC U713:B 5.605e-04
*RC U362:B 5.605e-04
*RC U356:A 5.605e-04
*END

*R_NET N914 6.030e-03
*DRIVER U710:Y
*CELL ad3d1_hd
*C2_R1_C1 3.015e-03 7.370e-03 3.015e-03 
*LOADS
*RC clk_gate_clk_r_REG8_S10/latch:EN 4.444e-05
*END

*R_NET N915 1.030e-02
*DRIVER U708:Y
*CELL nr3d1_hd
*C2_R1_C1 5.150e-03 9.100e-03 5.150e-03 
*LOADS
*RC eco_cell:A 9.373e-05
*RC clk_gate_clk_r_REG10_S11/latch:EN 9.373e-05
*END

*R_NET N916 2.681e-02
*DRIVER U697:Y
*CELL ao21d1_hd
*C2_R1_C1 1.340e-02 1.094e-02 1.340e-02 
*LOADS
*RC clk_r_REG103_S11:E 2.933e-04
*RC clk_r_REG84_S11:E 2.933e-04
*RC clk_r_REG82_S11:E 2.933e-04
*RC clk_r_REG81_S11:E 2.933e-04
*END

*R_NET N1102 2.222e-02
*DRIVER U869:Y
*CELL or2d1_hd
*C2_R1_C1 1.111e-02 1.094e-02 1.111e-02 
*LOADS
*RC U862:A 2.431e-04
*RC U853:A 2.431e-04
*RC U706:A 2.431e-04
*RC U334:A 2.431e-04
*END

*R_NET n349 1.097e-02
*DRIVER U612:Y
*CELL ivd1_hd
*C2_R1_C1 5.485e-03 9.100e-03 5.485e-03 
*LOADS
*RC U723:B 9.983e-05
*RC U629:A 9.983e-05
*END

*R_NET n350 5.840e-03
*DRIVER U618:Y
*CELL nr4d1_hd
*C2_R1_C1 2.920e-03 7.370e-03 2.920e-03 
*LOADS
*RC U614:A 4.304e-05
*END

*R_NET n351 9.700e-03
*DRIVER U615:Y
*CELL nr2d1_hd
*C2_R1_C1 4.850e-03 9.100e-03 4.850e-03 
*LOADS
*RC U614:C 8.827e-05
*RC U614:B 8.827e-05
*END

*R_NET n352 1.216e-02
*DRIVER U696:Y
*CELL nd2bd1_hd
*C2_R1_C1 6.080e-03 9.100e-03 6.080e-03 
*LOADS
*RC U615:A 1.107e-04
*RC U453:A 1.107e-04
*END

*R_NET n353 5.640e-03
*DRIVER U616:Y
*CELL nd4d1_hd
*C2_R1_C1 2.820e-03 7.370e-03 2.820e-03 
*LOADS
*RC U615:B 4.157e-05
*END

*R_NET n354 1.633e-02
*DRIVER U736:Y
*CELL nr2d1_hd
*C2_R1_C1 8.165e-03 9.460e-03 8.165e-03 
*LOADS
*RC U735:A 1.545e-04
*RC U616:A 1.545e-04
*RC U409:B 1.545e-04
*END

*R_NET n355 5.740e-03
*DRIVER U617:Y
*CELL nr2d1_hd
*C2_R1_C1 2.870e-03 7.370e-03 2.870e-03 
*LOADS
*RC U616:B 4.230e-05
*END

*R_NET n356 2.781e-02
*DRIVER U342:Y
*CELL clknd2d1_hd
*C2_R1_C1 1.390e-02 1.549e-02 1.390e-02 
*LOADS
*RC U865:B 4.308e-04
*RC U756:A 4.308e-04
*RC U729:A 4.308e-04
*RC U691:B 4.308e-04
*RC U616:C 4.308e-04
*END

*R_NET n357 1.662e-02
*DRIVER U329:Y
*CELL clknd2d1_hd
*C2_R1_C1 8.310e-03 9.460e-03 8.310e-03 
*LOADS
*RC U837:D 1.572e-04
*RC U726:D 1.572e-04
*RC U616:D 1.572e-04
*END

*R_NET n358 1.592e-02
*DRIVER U835:Y
*CELL nr2d1_hd
*C2_R1_C1 7.960e-03 9.460e-03 7.960e-03 
*LOADS
*RC U834:A 1.506e-04
*RC U650:A 1.506e-04
*RC U617:A 1.506e-04
*END

*R_NET n359 2.405e-02
*DRIVER U882:Y
*CELL nr2d1_hd
*C2_R1_C1 1.202e-02 1.094e-02 1.202e-02 
*LOADS
*RC U881:A 2.631e-04
*RC U715:C 2.631e-04
*RC U617:B 2.631e-04
*RC U357:A 2.631e-04
*END

*R_NET n360 3.564e-02
*DRIVER U830:Y
*CELL nr2d1_hd
*C2_R1_C1 1.782e-02 1.549e-02 1.782e-02 
*LOADS
*RC U829:A 5.521e-04
*RC U743:A 5.521e-04
*RC U715:A 5.521e-04
*RC U618:A 5.521e-04
*RC U466:A 5.521e-04
*END

*R_NET n361 5.067e-02
*DRIVER U775:Y
*CELL nr2d1_hd
*C2_R1_C1 2.534e-02 2.090e-02 2.534e-02 
*LOADS
*RC U774:A 1.059e-03
*RC U703:A 1.059e-03
*RC U694:A 1.059e-03
*RC U692:A 1.059e-03
*RC U690:A 1.059e-03
*RC U677:B 1.059e-03
*RC U618:B 1.059e-03
*RC U366:A 1.059e-03
*RC U351:A 1.059e-03
*END

*R_NET n362 1.133e-02
*DRIVER U719:Y
*CELL oa211d1_hd
*C2_R1_C1 5.665e-03 9.100e-03 5.665e-03 
*LOADS
*RC U717:B 1.031e-04
*RC U618:C 1.031e-04
*END

*R_NET n363 6.180e-03
*DRIVER U442:Y
*CELL clknd2d1_hd
*C2_R1_C1 3.090e-03 7.370e-03 3.090e-03 
*LOADS
*RC U618:D 4.555e-05
*END

*R_NET n364 3.845e-02
*DRIVER U786:Y
*CELL nd4d1_hd
*C2_R1_C1 1.923e-02 1.715e-02 1.923e-02 
*LOADS
*RC U783:C 6.594e-04
*RC U749:B 6.594e-04
*RC U742:A 6.594e-04
*RC U666:A 6.594e-04
*RC U665:B 6.594e-04
*RC U657:A 6.594e-04
*RC U442:A 6.594e-04
*END

*R_NET n365 9.600e-03
*DRIVER U832:Y
*CELL nd3bd1_hd
*C2_R1_C1 4.800e-03 9.100e-03 4.800e-03 
*LOADS
*RC U442:B 8.736e-05
*RC U339:B 8.736e-05
*END

*R_NET n366 1.084e-02
*DRIVER U354:Y
*CELL scg2d1_hd
*C2_R1_C1 5.420e-03 9.100e-03 5.420e-03 
*LOADS
*RC U734:C 9.864e-05
*RC U619:A 9.864e-05
*END

*R_NET n367 5.890e-03
*DRIVER U433:Y
*CELL clknd2d1_hd
*C2_R1_C1 2.945e-03 7.370e-03 2.945e-03 
*LOADS
*RC U619:B 4.341e-05
*END

*R_NET n368 5.810e-03
*DRIVER U620:Y
*CELL nr2d1_hd
*C2_R1_C1 2.905e-03 7.370e-03 2.905e-03 
*LOADS
*RC U619:C 4.282e-05
*END

*R_NET n369 9.576e-02
*DRIVER U454:Y
*CELL ivd2_hd
*C2_R1_C1 4.788e-02 2.865e-02 4.788e-02 
*LOADS
*RC U792:A 2.744e-03
*RC U730:B 2.744e-03
*RC U729:D 2.744e-03
*RC U718:C 2.744e-03
*RC U702:B 2.744e-03
*RC U674:D 2.744e-03
*RC U645:B 2.744e-03
*RC U644:B 2.744e-03
*RC U643:B 2.744e-03
*RC U642:B 2.744e-03
*RC U641:B 2.744e-03
*RC U623:B 2.744e-03
*RC U619:D 2.744e-03
*RC U441:D 2.744e-03
*RC U440:D 2.744e-03
*RC U439:D 2.744e-03
*RC U438:D 2.744e-03
*RC U437:D 2.744e-03
*RC U436:D 2.744e-03
*RC U435:D 2.744e-03
*RC U434:D 2.744e-03
*RC U433:A 2.744e-03
*RC U368:A 2.744e-03
*END

*R_NET n370 1.050e-02
*DRIVER U353:Y
*CELL clknd2d1_hd
*C2_R1_C1 5.250e-03 9.100e-03 5.250e-03 
*LOADS
*RC U792:B 9.555e-05
*RC U620:B 9.555e-05
*END

*R_NET n371 1.593e-02
*DRIVER U351:Y
*CELL clknd2d1_hd
*C2_R1_C1 7.965e-03 9.460e-03 7.965e-03 
*LOADS
*RC U721:D 1.507e-04
*RC U623:A 1.507e-04
*RC U621:B 1.507e-04
*END

*R_NET n372 5.600e-03
*DRIVER U412:Y
*CELL clknd2d1_hd
*C2_R1_C1 2.800e-03 7.370e-03 2.800e-03 
*LOADS
*RC U621:C 4.127e-05
*END

*R_NET n373 5.610e-03
*DRIVER U622:Y
*CELL nd4d1_hd
*C2_R1_C1 2.805e-03 7.370e-03 2.805e-03 
*LOADS
*RC U621:D 4.135e-05
*END

*R_NET n374 5.740e-03
*DRIVER U623:Y
*CELL ad2d1_hd
*C2_R1_C1 2.870e-03 7.370e-03 2.870e-03 
*LOADS
*RC U622:B 4.230e-05
*END

*R_NET n375 2.632e-02
*DRIVER U834:Y
*CELL ivd1_hd
*C2_R1_C1 1.316e-02 1.549e-02 1.316e-02 
*LOADS
*RC U666:C 4.077e-04
*RC U646:D 4.077e-04
*RC U622:C 4.077e-04
*RC U445:D 4.077e-04
*RC U339:A 4.077e-04
*END

*R_NET n376 9.600e-03
*DRIVER U352:Y
*CELL clknd2d1_hd
*C2_R1_C1 4.800e-03 9.100e-03 4.800e-03 
*LOADS
*RC U625:C 8.736e-05
*RC U622:D 8.736e-05
*END

*R_NET n377 1.595e-02
*DRIVER U792:Y
*CELL nr2d1_hd
*C2_R1_C1 7.975e-03 9.460e-03 7.975e-03 
*LOADS
*RC U713:D 1.509e-04
*RC U412:B 1.509e-04
*RC U367:A 1.509e-04
*END

*R_NET n378 2.372e-02
*DRIVER U881:Y
*CELL ivd1_hd
*C2_R1_C1 1.186e-02 1.094e-02 1.186e-02 
*LOADS
*RC U880:B 2.595e-04
*RC U790:D 2.595e-04
*RC U740:D 2.595e-04
*RC U624:A 2.595e-04
*END

*R_NET n379 9.700e-03
*DRIVER U625:Y
*CELL ad3d1_hd
*C2_R1_C1 4.850e-03 9.100e-03 4.850e-03 
*LOADS
*RC U624:C 8.827e-05
*RC U624:B 8.827e-05
*END

*R_NET n380 1.552e-02
*DRIVER U338:Y
*CELL clknd2d1_hd
*C2_R1_C1 7.760e-03 9.460e-03 7.760e-03 
*LOADS
*RC U870:B 1.468e-04
*RC U831:B 1.468e-04
*RC U625:A 1.468e-04
*END

*R_NET n381 2.222e-02
*DRIVER U346:Y
*CELL clknd2d1_hd
*C2_R1_C1 1.111e-02 1.094e-02 1.111e-02 
*LOADS
*RC U716:E 2.431e-04
*RC U702:D 2.431e-04
*RC U666:D 2.431e-04
*RC U625:B 2.431e-04
*END

*R_NET n382 2.558e-02
*DRIVER U845:Y
*CELL nr2d1_hd
*C2_R1_C1 1.279e-02 1.549e-02 1.279e-02 
*LOADS
*RC U844:A 3.962e-04
*RC U714:A 3.962e-04
*RC U445:B 3.962e-04
*RC U354:A 3.962e-04
*RC U352:A 3.962e-04
*END

*R_NET n383 4.680e-03
*DRIVER U700:Y
*CELL nr2d1_hd
*C2_R1_C1 2.340e-03 7.370e-03 2.340e-03 
*LOADS
*RC clk_r_REG102_S11:D 3.449e-05
*END

*R_NET n384 1.555e-02
*DRIVER U843:Y
*CELL ivd1_hd
*C2_R1_C1 7.775e-03 9.460e-03 7.775e-03 
*LOADS
*RC U841:A 1.471e-04
*RC U699:B 1.471e-04
*RC U445:A 1.471e-04
*END

*R_NET n385 5.640e-03
*DRIVER U627:Y
*CELL ao21d1_hd
*C2_R1_C1 2.820e-03 7.370e-03 2.820e-03 
*LOADS
*RC U626:C 4.157e-05
*END

*R_NET n386 1.016e-02
*DRIVER U468:Y
*CELL ivd1_hd
*C2_R1_C1 5.080e-03 9.100e-03 5.080e-03 
*LOADS
*RC U628:A 9.246e-05
*RC U367:B 9.246e-05
*END

*R_NET n387 5.800e-03
*DRIVER U446:Y
*CELL clknd2d1_hd
*C2_R1_C1 2.900e-03 7.370e-03 2.900e-03 
*LOADS
*RC U628:B 4.275e-05
*END

*R_NET n388 1.633e-02
*DRIVER U640:Y
*CELL ivd1_hd
*C2_R1_C1 8.165e-03 9.460e-03 8.165e-03 
*LOADS
*RC U639:A 1.545e-04
*RC U632:B 1.545e-04
*RC U446:A 1.545e-04
*END

*R_NET n389 5.800e-03
*DRIVER U447:Y
*CELL clknd2d1_hd
*C2_R1_C1 2.900e-03 7.370e-03 2.900e-03 
*LOADS
*RC U629:B 4.275e-05
*END

*R_NET n390 1.080e-02
*DRIVER U358:Y
*CELL clknd2d1_hd
*C2_R1_C1 5.400e-03 9.100e-03 5.400e-03 
*LOADS
*RC U633:A 9.828e-05
*RC U630:A 9.828e-05
*END

*R_NET n391 5.890e-03
*DRIVER U632:Y
*CELL nr2d1_hd
*C2_R1_C1 2.945e-03 7.370e-03 2.945e-03 
*LOADS
*RC U630:B 4.341e-05
*END

*R_NET n392 2.315e-02
*DRIVER U635:Y
*CELL nr2d1_hd
*C2_R1_C1 1.157e-02 1.094e-02 1.157e-02 
*LOADS
*RC U634:A 2.533e-04
*RC U633:C 2.533e-04
*RC U632:A 2.533e-04
*RC U630:C 2.533e-04
*END

*R_NET n393 5.880e-03
*DRIVER U631:Y
*CELL ivd1_hd
*C2_R1_C1 2.940e-03 7.370e-03 2.940e-03 
*LOADS
*RC U630:D 4.334e-05
*END

*R_NET n394 5.890e-03
*DRIVER U634:Y
*CELL nr2d1_hd
*C2_R1_C1 2.945e-03 7.370e-03 2.945e-03 
*LOADS
*RC U633:B 4.341e-05
*END

*R_NET n395 1.654e-02
*DRIVER U474:Y
*CELL ivd1_hd
*C2_R1_C1 8.270e-03 9.460e-03 8.270e-03 
*LOADS
*RC U729:C 1.565e-04
*RC U633:D 1.565e-04
*RC U353:B 1.565e-04
*END

*R_NET n396 9.940e-03
*DRIVER U637:Y
*CELL ivd1_hd
*C2_R1_C1 4.970e-03 9.100e-03 4.970e-03 
*LOADS
*RC U635:A 9.045e-05
*RC U358:A 9.045e-05
*END

*R_NET n397 1.005e-02
*DRIVER U636:Y
*CELL ivd1_hd
*C2_R1_C1 5.025e-03 9.100e-03 5.025e-03 
*LOADS
*RC U635:B 9.146e-05
*RC U358:B 9.146e-05
*END

*R_NET n398 5.640e-03
*DRIVER U639:Y
*CELL ao21d1_hd
*C2_R1_C1 2.820e-03 7.370e-03 2.820e-03 
*LOADS
*RC U638:C 4.157e-05
*END

*R_NET n399 1.037e-02
*DRIVER U456:Y
*CELL clknd2d1_hd
*C2_R1_C1 5.185e-03 9.100e-03 5.185e-03 
*LOADS
*RC U668:C 9.437e-05
*RC U641:C 9.437e-05
*END

*R_NET n400 1.034e-02
*DRIVER U459:Y
*CELL clknd2d1_hd
*C2_R1_C1 5.170e-03 9.100e-03 5.170e-03 
*LOADS
*RC U669:C 9.409e-05
*RC U642:C 9.409e-05
*END

*R_NET n401 1.034e-02
*DRIVER U458:Y
*CELL clknd2d1_hd
*C2_R1_C1 5.170e-03 9.100e-03 5.170e-03 
*LOADS
*RC U670:C 9.409e-05
*RC U643:C 9.409e-05
*END

*R_NET n402 1.034e-02
*DRIVER U457:Y
*CELL clknd2d1_hd
*C2_R1_C1 5.170e-03 9.100e-03 5.170e-03 
*LOADS
*RC U671:C 9.409e-05
*RC U644:C 9.409e-05
*END

*R_NET n403 1.037e-02
*DRIVER U455:Y
*CELL clknd2d1_hd