*SPEF "IEEE 1481-1999"
*DESIGN "ads1292_controller"
*DATE "Wed Jun 17 18:08:48 2020"
*VENDOR "SYNOPSYS INC"
*PROGRAM "Synopsys Design Compiler cmos"
*VERSION "F-2011.09-SP5-3"
*DESIGN_FLOW "SYNTHESIS"
*DIVIDER /
*DELIMITER :
*BUS_DELIMITER []
*T_UNIT 1.0 NS
*C_UNIT 1.0 PF
*R_UNIT 1.0 KOHM
*L_UNIT 1.0 HENRY

*PORTS

o_ADS1292_DATA_OUT\[23\] O *L 1.035e-02 *S 1.434e-01 1.217e-01 
o_ADS1292_DATA_OUT\[22\] O *L 1.035e-02 *S 1.434e-01 1.217e-01 
o_ADS1292_DATA_OUT\[21\] O *L 1.035e-02 *S 1.434e-01 1.217e-01 
o_ADS1292_DATA_OUT\[20\] O *L 1.035e-02 *S 1.434e-01 1.217e-01 
o_ADS1292_DATA_OUT\[19\] O *L 1.035e-02 *S 1.434e-01 1.217e-01 
o_ADS1292_DATA_OUT\[18\] O *L 1.035e-02 *S 1.434e-01 1.217e-01 
o_ADS1292_DATA_OUT\[17\] O *L 1.035e-02 *S 1.434e-01 1.217e-01 
o_ADS1292_DATA_OUT\[16\] O *L 1.035e-02 *S 1.434e-01 1.217e-01 
o_ADS1292_DATA_OUT\[15\] O *L 1.035e-02 *S 1.434e-01 1.217e-01 
o_ADS1292_DATA_OUT\[14\] O *L 1.035e-02 *S 1.434e-01 1.217e-01 
o_ADS1292_DATA_OUT\[13\] O *L 1.035e-02 *S 1.434e-01 1.217e-01 
o_ADS1292_DATA_OUT\[12\] O *L 1.035e-02 *S 1.434e-01 1.217e-01 
o_ADS1292_DATA_OUT\[11\] O *L 1.035e-02 *S 1.434e-01 1.217e-01 
o_ADS1292_DATA_OUT\[10\] O *L 1.035e-02 *S 1.434e-01 1.217e-01 
o_ADS1292_DATA_OUT\[9\] O *L 1.035e-02 *S 1.434e-01 1.217e-01 
o_ADS1292_DATA_OUT\[8\] O *L 1.035e-02 *S 1.434e-01 1.217e-01 
o_ADS1292_DATA_OUT\[7\] O *L 1.035e-02 *S 1.434e-01 1.217e-01 
o_ADS1292_DATA_OUT\[6\] O *L 1.035e-02 *S 1.434e-01 1.217e-01 
o_ADS1292_DATA_OUT\[5\] O *L 1.035e-02 *S 1.434e-01 1.217e-01 
o_ADS1292_DATA_OUT\[4\] O *L 1.035e-02 *S 1.434e-01 1.217e-01 
o_ADS1292_DATA_OUT\[3\] O *L 1.035e-02 *S 1.434e-01 1.217e-01 
o_ADS1292_DATA_OUT\[2\] O *L 1.035e-02 *S 1.434e-01 1.217e-01 
o_ADS1292_DATA_OUT\[1\] O *L 1.035e-02 *S 1.434e-01 1.217e-01 
o_ADS1292_DATA_OUT\[0\] O *L 1.035e-02 *S 1.434e-01 1.217e-01 
i_ADS1292_CONTROL\[2\] I *L 1.900e-03 *S 5.713e-01 5.074e-01 *D fd2qd1_hd 
i_ADS1292_CONTROL\[1\] I *L 1.900e-03 *S 3.932e-01 3.877e-01 *D fd2qd1_hd 
i_ADS1292_CONTROL\[0\] I *L 1.900e-03 *S 3.323e-01 3.445e-01 *D fd2qd1_hd 
i_ADS1292_REG_ADDR\[7\] I *L 1.900e-03 *S 1.340e-01 1.734e-01 *D fd2qd1_hd 
i_ADS1292_REG_ADDR\[6\] I *L 1.900e-03 *S 1.340e-01 1.734e-01 *D fd2qd1_hd 
i_ADS1292_REG_ADDR\[5\] I *L 1.900e-03 *S 1.340e-01 1.734e-01 *D fd2qd1_hd 
i_ADS1292_REG_ADDR\[4\] I *L 1.900e-03 *S 2.020e-01 2.382e-01 *D fd2qd1_hd 
i_ADS1292_REG_ADDR\[3\] I *L 1.900e-03 *S 2.020e-01 2.382e-01 *D fd2qd1_hd 
i_ADS1292_REG_ADDR\[2\] I *L 1.900e-03 *S 1.984e-01 2.353e-01 *D fd2qd1_hd 
i_ADS1292_REG_ADDR\[1\] I *L 1.900e-03 *S 1.984e-01 2.353e-01 *D fd2qd1_hd 
i_ADS1292_REG_ADDR\[0\] I *L 1.900e-03 *S 2.020e-01 2.382e-01 *D fd2qd1_hd 
i_ADS1292_DATA_IN\[7\] I *L 1.900e-03 *S 1.341e-01 1.735e-01 *D fd2qd1_hd 
i_ADS1292_DATA_IN\[6\] I *L 1.900e-03 *S 1.341e-01 1.735e-01 *D fd2qd1_hd 
i_ADS1292_DATA_IN\[5\] I *L 1.900e-03 *S 1.341e-01 1.735e-01 *D fd2qd1_hd 
i_ADS1292_DATA_IN\[4\] I *L 1.900e-03 *S 1.341e-01 1.735e-01 *D fd2qd1_hd 
i_ADS1292_DATA_IN\[3\] I *L 1.900e-03 *S 1.341e-01 1.735e-01 *D fd2qd1_hd 
i_ADS1292_DATA_IN\[2\] I *L 1.900e-03 *S 1.341e-01 1.735e-01 *D fd2qd1_hd 
i_ADS1292_DATA_IN\[1\] I *L 1.900e-03 *S 1.341e-01 1.735e-01 *D fd2qd1_hd 
i_ADS1292_DATA_IN\[0\] I *L 1.900e-03 *S 1.341e-01 1.735e-01 *D fd2qd1_hd 
o_ADS1292_REG_DATA_OUT\[7\] O *L 1.035e-02 *S 1.434e-01 1.217e-01 
o_ADS1292_REG_DATA_OUT\[6\] O *L 1.035e-02 *S 1.434e-01 1.217e-01 
o_ADS1292_REG_DATA_OUT\[5\] O *L 1.035e-02 *S 1.434e-01 1.217e-01 
o_ADS1292_REG_DATA_OUT\[4\] O *L 1.035e-02 *S 1.434e-01 1.217e-01 
o_ADS1292_REG_DATA_OUT\[3\] O *L 1.035e-02 *S 1.434e-01 1.217e-01 
o_ADS1292_REG_DATA_OUT\[2\] O *L 1.035e-02 *S 1.434e-01 1.217e-01 
o_ADS1292_REG_DATA_OUT\[1\] O *L 1.035e-02 *S 1.434e-01 1.217e-01 
o_ADS1292_REG_DATA_OUT\[0\] O *L 1.035e-02 *S 1.434e-01 1.217e-01 
o_ADS1292_INIT_SET O *L 1.035e-02 *S 2.158e-01 2.297e-01 
o_ADS1292_DATA_VALID O *L 1.035e-02 *S 2.158e-01 2.297e-01 
o_ADS1292_BUSY O *L 1.035e-02 *S 3.711e-01 3.512e-01 
o_SPI_CLK O *L 1.035e-02 *S 2.853e-01 2.847e-01 
i_SPI_MISO I *L 0.000e+00 *S 0.000e+00 0.000e+00 
o_SPI_MOSI O *L 1.035e-02 *S 2.188e-01 2.321e-01 
i_ADS1292_DRDY I *L 0.000e+00 *S 0.000e+00 0.000e+00 
o_ADS1292_RESET O *L 1.035e-02 *S 2.133e-01 1.575e-01 
o_ADS1292_START O *L 1.035e-02 *S 2.200e-01 2.330e-01 
o_SPI_CSN O *L 1.035e-02 *S 2.141e-01 1.580e-01 
i_CLK I *L 0.000e+00 *S 0.000e+00 0.000e+00 
i_RSTN I *L 2.176e-02 *S 0.000e+00 0.000e+00 *D nid1_hd 

*R_NET i_ADS1292_CONTROL\[2\] 6.901e-02
*DRIVER i_ADS1292_CONTROL\[2\]
*CELL fd2qd1_hd
*C2_R1_C1 3.450e-02 2.739e-02 3.450e-02 
*LOADS
*RC U15:D1 1.890e-03
*RC U123:A 1.890e-03
*RC U125:D 1.890e-03
*RC U120:C 1.890e-03
*RC U121:C 1.890e-03
*RC U122:B 1.890e-03
*RC U126:B 1.890e-03
*RC U523:A 1.890e-03
*END

*R_NET i_ADS1292_CONTROL\[1\] 4.666e-02
*DRIVER i_ADS1292_CONTROL\[1\]
*CELL fd2qd1_hd
*C2_R1_C1 2.333e-02 2.338e-02 2.333e-02 
*LOADS
*RC U120:B 1.091e-03
*RC U121:B 1.091e-03
*RC U122:C 1.091e-03
*RC U126:C 1.091e-03
*RC U522:A 1.091e-03
*END

*R_NET i_ADS1292_CONTROL\[0\] 3.903e-02
*DRIVER i_ADS1292_CONTROL\[0\]
*CELL fd2qd1_hd
*C2_R1_C1 1.952e-02 2.126e-02 1.952e-02 
*LOADS
*RC U16:B 8.298e-04
*RC U121:A 8.298e-04
*RC U122:A 8.298e-04
*RC U525:A 8.298e-04
*END

*R_NET i_ADS1292_REG_ADDR\[7\] 1.459e-02
*DRIVER i_ADS1292_REG_ADDR\[7\]
*CELL fd2qd1_hd
*C2_R1_C1 7.295e-03 1.275e-02 7.295e-03 
*LOADS
*RC U129:B 1.860e-04
*END

*R_NET i_ADS1292_REG_ADDR\[6\] 1.459e-02
*DRIVER i_ADS1292_REG_ADDR\[6\]
*CELL fd2qd1_hd
*C2_R1_C1 7.295e-03 1.275e-02 7.295e-03 
*LOADS
*RC U128:B 1.860e-04
*END

*R_NET i_ADS1292_REG_ADDR\[5\] 1.459e-02
*DRIVER i_ADS1292_REG_ADDR\[5\]
*CELL fd2qd1_hd
*C2_R1_C1 7.295e-03 1.275e-02 7.295e-03 
*LOADS
*RC U130:B 1.860e-04
*END

*R_NET i_ADS1292_REG_ADDR\[4\] 2.285e-02
*DRIVER i_ADS1292_REG_ADDR\[4\]
*CELL fd2qd1_hd
*C2_R1_C1 1.142e-02 1.469e-02 1.142e-02 
*LOADS
*RC clk_r_REG113_S8:D 3.357e-04
*RC U133:B 3.357e-04
*END

*R_NET i_ADS1292_REG_ADDR\[3\] 2.285e-02
*DRIVER i_ADS1292_REG_ADDR\[3\]
*CELL fd2qd1_hd
*C2_R1_C1 1.142e-02 1.469e-02 1.142e-02 
*LOADS
*RC clk_r_REG102_S8:D 3.357e-04
*RC U354:B 3.357e-04
*END

*R_NET i_ADS1292_REG_ADDR\[2\] 2.240e-02
*DRIVER i_ADS1292_REG_ADDR\[2\]
*CELL fd2qd1_hd
*C2_R1_C1 1.120e-02 1.469e-02 1.120e-02 
*LOADS
*RC clk_r_REG100_S8:D 3.291e-04
*RC U118:B 3.291e-04
*END

*R_NET i_ADS1292_REG_ADDR\[1\] 2.240e-02
*DRIVER i_ADS1292_REG_ADDR\[1\]
*CELL fd2qd1_hd
*C2_R1_C1 1.120e-02 1.469e-02 1.120e-02 
*LOADS
*RC clk_r_REG112_S8:D 3.291e-04
*RC U131:B 3.291e-04
*END

*R_NET i_ADS1292_REG_ADDR\[0\] 2.285e-02
*DRIVER i_ADS1292_REG_ADDR\[0\]
*CELL fd2qd1_hd
*C2_R1_C1 1.142e-02 1.469e-02 1.142e-02 
*LOADS
*RC clk_r_REG114_S8:D 3.357e-04
*RC U466:B 3.357e-04
*END

*R_NET i_ADS1292_DATA_IN\[7\] 1.460e-02
*DRIVER i_ADS1292_DATA_IN\[7\]
*CELL fd2qd1_hd
*C2_R1_C1 7.300e-03 1.275e-02 7.300e-03 
*LOADS
*RC clk_r_REG111_S8:D 1.861e-04
*END

*R_NET i_ADS1292_DATA_IN\[6\] 1.460e-02
*DRIVER i_ADS1292_DATA_IN\[6\]
*CELL fd2qd1_hd
*C2_R1_C1 7.300e-03 1.275e-02 7.300e-03 
*LOADS
*RC clk_r_REG110_S8:D 1.861e-04
*END

*R_NET i_ADS1292_DATA_IN\[5\] 1.460e-02
*DRIVER i_ADS1292_DATA_IN\[5\]
*CELL fd2qd1_hd
*C2_R1_C1 7.300e-03 1.275e-02 7.300e-03 
*LOADS
*RC clk_r_REG109_S8:D 1.861e-04
*END

*R_NET i_ADS1292_DATA_IN\[4\] 1.460e-02
*DRIVER i_ADS1292_DATA_IN\[4\]
*CELL fd2qd1_hd
*C2_R1_C1 7.300e-03 1.275e-02 7.300e-03 
*LOADS
*RC clk_r_REG108_S8:D 1.861e-04
*END

*R_NET i_ADS1292_DATA_IN\[3\] 1.460e-02
*DRIVER i_ADS1292_DATA_IN\[3\]
*CELL fd2qd1_hd
*C2_R1_C1 7.300e-03 1.275e-02 7.300e-03 
*LOADS
*RC clk_r_REG107_S8:D 1.861e-04
*END

*R_NET i_ADS1292_DATA_IN\[2\] 1.460e-02
*DRIVER i_ADS1292_DATA_IN\[2\]
*CELL fd2qd1_hd
*C2_R1_C1 7.300e-03 1.275e-02 7.300e-03 
*LOADS
*RC clk_r_REG106_S8:D 1.861e-04
*END

*R_NET i_ADS1292_DATA_IN\[1\] 1.460e-02
*DRIVER i_ADS1292_DATA_IN\[1\]
*CELL fd2qd1_hd
*C2_R1_C1 7.300e-03 1.275e-02 7.300e-03 
*LOADS
*RC clk_r_REG105_S8:D 1.861e-04
*END

*R_NET i_ADS1292_DATA_IN\[0\] 1.460e-02
*DRIVER i_ADS1292_DATA_IN\[0\]
*CELL fd2qd1_hd
*C2_R1_C1 7.300e-03 1.275e-02 7.300e-03 
*LOADS
*RC clk_r_REG104_S8:D 1.861e-04
*END

*R_NET i_SPI_MISO 6.601e-02
*DRIVER i_SPI_MISO
*CELL NULL
*C2_R1_C1 3.300e-02 2.706e-02 3.300e-02 
*LOADS
*RC spi_master/U183:D1 1.786e-03
*RC spi_master/U180:D1 1.786e-03
*RC spi_master/U177:D1 1.786e-03
*RC spi_master/U174:D1 1.786e-03
*RC spi_master/U171:D1 1.786e-03
*RC spi_master/U168:D1 1.786e-03
*RC spi_master/U165:D1 1.786e-03
*RC spi_master/U162:D1 1.786e-03
*END

*R_NET i_ADS1292_DRDY 4.200e-02
*DRIVER i_ADS1292_DRDY
*CELL NULL
*C2_R1_C1 2.100e-02 2.126e-02 2.100e-02 
*LOADS
*RC clk_r_REG148_S1:D 8.929e-04
*RC U665:B 8.929e-04
*RC U659:A 8.929e-04
*RC U650:A 8.929e-04
*RC U534:B 8.929e-04
*END

*R_NET i_CLK 6.947e-02
*DRIVER i_CLK
*CELL NULL
*C2_R1_C1 3.474e-02 0.000e+00 3.474e-02 
*LOADS
*RC clk_gate_clk_r_REG33_S14_0/latch:CK 0.000e+00
*RC clk_gate_clk_r_REG32_S13_0/latch:CK 0.000e+00
*RC clk_gate_clk_r_REG114_S8_0/latch:CK 0.000e+00
*RC clk_gate_clk_r_REG31_S13_0/latch:CK 0.000e+00
*RC clk_gate_clk_r_REG14_S5_0/latch:CK 0.000e+00
*RC clk_gate_clk_r_REG103_S8_0/latch:CK 0.000e+00
*RC clk_gate_clk_r_REG95_S7_0/latch:CK 0.000e+00
*RC clk_gate_clk_r_REG9_S3_0/latch:CK 0.000e+00
*RC spi_master/clk_gate_clk_r_REG53_S2_0/latch:CK 0.000e+00
*RC spi_master/clk_gate_clk_r_REG0_S1_0/latch:CK 0.000e+00
*RC spi_master/clk_gate_clk_r_REG34_S2_0/latch:CK 0.000e+00
*RC spi_master/async_rstn_synchronizer/r_ff_reg:CK 0.000e+00
*RC spi_master/async_rstn_synchronizer/o_RSTN_reg:CK 0.000e+00
*RC spi_master/clk_r_REG9_S1:CK 0.000e+00
*RC spi_master/clk_r_REG21_S4:CK 0.000e+00
*RC spi_master/clk_r_REG48_S2:CK 0.000e+00
*RC spi_master/clk_r_REG46_S2:CK 0.000e+00
*RC spi_master/clk_r_REG50_S2:CK 0.000e+00
*RC spi_master/clk_r_REG52_S2:CK 0.000e+00
*RC spi_master/clk_r_REG14_S2:CK 0.000e+00
*RC spi_master/clk_r_REG10_S1:CK 0.000e+00
*RC clk_r_REG145_S1:CK 0.000e+00
*RC clk_r_REG0_S1:CK 0.000e+00
*RC clk_r_REG143_S1:CK 0.000e+00
*RC clk_r_REG144_S1:CK 0.000e+00
*RC clk_r_REG147_S1:CK 0.000e+00
*RC clk_r_REG148_S1:CK 0.000e+00
*RC clk_r_REG20_S5:CK 0.000e+00
*RC clk_r_REG146_S1:CK 0.000e+00
*RC clk_r_REG17_S6:CK 0.000e+00
*RC clk_r_REG23_S7:CK 0.000e+00
*RC clk_r_REG16_S5:CK 0.000e+00
*RC clk_r_REG22_S6:CK 0.000e+00
*RC clk_r_REG3_S2:CK 0.000e+00
*RC clk_r_REG98_S6:CK 0.000e+00
*RC async_rstn_synchronizer/r_ff_reg:CK 0.000e+00
*RC async_rstn_synchronizer/o_RSTN_reg:CK 0.000e+00
*END

*R_NET n161 4.750e-03
*DRIVER U453:Y
*CELL scg2d1_hd
*C2_R1_C1 2.375e-03 7.370e-03 2.375e-03 
*LOADS
*RC clk_r_REG93_S4:D 3.501e-05
*END

*R_NET n162 4.750e-03
*DRIVER U591:Y
*CELL oa22ad1_hd
*C2_R1_C1 2.375e-03 7.370e-03 2.375e-03 
*LOADS
*RC clk_r_REG91_S13:D 3.501e-05
*END

*R_NET n163 4.750e-03
*DRIVER U586:Y
*CELL ao22d1_hd
*C2_R1_C1 2.375e-03 7.370e-03 2.375e-03 
*LOADS
*RC clk_r_REG1_S2:D 3.501e-05
*END

*R_NET o_SPI_CLK 3.163e-02
*DRIVER spi_master/clk_r_REG35_S2:Q
*CELL fd4qd1_hd
*C2_R1_C1 1.581e-02 1.469e-02 1.581e-02 
*LOADS
*RC spi_master/U153:A 4.646e-04
*RC spi_master/U152:D0 4.646e-04
*RC o_SPI_CLK 4.646e-04
*END

*R_NET o_SPI_MOSI 2.335e-02
*DRIVER spi_master/clk_r_REG1_S2:Q
*CELL fd4qd1_hd
*C2_R1_C1 1.168e-02 1.275e-02 1.168e-02 
*LOADS
*RC spi_master/U187:D0 2.977e-04
*RC o_SPI_MOSI 2.977e-04
*END

*R_NET n164 4.620e-03
*DRIVER U457:Y
*CELL mx2d1_hd
*C2_R1_C1 2.310e-03 7.370e-03 2.310e-03 
*LOADS
*RC clk_r_REG15_S5:D 3.405e-05
*END

*R_NET n165 4.750e-03
*DRIVER U588:Y
*CELL scg17d1_hd
*C2_R1_C1 2.375e-03 7.370e-03 2.375e-03 
*LOADS
*RC clk_r_REG2_S2:D 3.501e-05
*END

*R_NET n166 4.620e-03
*DRIVER U535:Y
*CELL oa211d1_hd
*C2_R1_C1 2.310e-03 7.370e-03 2.310e-03 
*LOADS
*RC clk_r_REG21_S6:D 3.405e-05
*END

*R_NET w_rstn 4.656e-02
*DRIVER async_rstn_synchronizer/o_RSTN_reg:Q
*CELL fd2qd1_hd
*C2_R1_C1 2.328e-02 2.090e-02 2.328e-02 
*LOADS
*RC spi_master/async_rstn_synchronizer/r_ff_reg:RN 9.733e-04
*RC spi_master/async_rstn_synchronizer/o_RSTN_reg:RN 9.733e-04
*RC clk_r_REG4_S3:RN 9.733e-04
*RC clk_r_REG5_S3:RN 9.733e-04
*RC clk_r_REG6_S3:RN 9.733e-04
*RC clk_r_REG7_S3:RN 9.733e-04
*RC U2:A 9.733e-04
*RC U1:A 9.733e-04
*RC U603:B 9.733e-04
*END

*R_NET r_spi_data_in_valid 4.750e-03
*DRIVER U580:Y
*CELL scg10d1_hd
*C2_R1_C1 2.375e-03 7.370e-03 2.375e-03 
*LOADS
*RC clk_r_REG30_S8:D 3.501e-05
*END

*R_NET w_spi_data_in_ready 5.413e-02
*DRIVER spi_master/U210:Y
*CELL nr2d1_hd
*C2_R1_C1 2.707e-02 2.139e-02 2.707e-02 
*LOADS
*RC spi_master/U215:A 1.158e-03
*RC spi_master/U131:A 1.158e-03
*RC spi_master/U49:C 1.158e-03
*RC spi_master/U48:C 1.158e-03
*RC spi_master/U45:C 1.158e-03
*RC spi_master/U44:C 1.158e-03
*RC U734:C 1.158e-03
*RC U733:A 1.158e-03
*RC U730:A 1.158e-03
*RC U653:A 1.158e-03
*RC U648:C 1.158e-03
*END

*R_NET w_spi_data_out_valid 2.220e-02
*DRIVER spi_master/clk_r_REG21_S4:Q
*CELL fd4qd1_hd
*C2_R1_C1 1.110e-02 1.094e-02 1.110e-02 
*LOADS
*RC U5:B 2.429e-04
*RC U756:A 2.429e-04
*RC U658:C 2.429e-04
*RC U649:AN 2.429e-04
*END

*R_NET N331 4.680e-03
*DRIVER add_x_2/U36:Y
*CELL ivd1_hd
*C2_R1_C1 2.340e-03 7.370e-03 2.340e-03 
*LOADS
*RC U383:C 3.449e-05
*END

*R_NET N332 4.680e-03
*DRIVER add_x_2/U31:S
*CELL had1_hd
*C2_R1_C1 2.340e-03 7.370e-03 2.340e-03 
*LOADS
*RC U384:C 3.449e-05
*END

*R_NET N333 4.680e-03
*DRIVER add_x_2/U30:S
*CELL had1_hd
*C2_R1_C1 2.340e-03 7.370e-03 2.340e-03 
*LOADS
*RC U385:C 3.449e-05
*END

*R_NET N334 4.680e-03
*DRIVER add_x_2/U29:S
*CELL had1_hd
*C2_R1_C1 2.340e-03 7.370e-03 2.340e-03 
*LOADS
*RC U386:C 3.449e-05
*END

*R_NET N335 4.680e-03
*DRIVER add_x_2/U28:S
*CELL had1_hd
*C2_R1_C1 2.340e-03 7.370e-03 2.340e-03 
*LOADS
*RC U387:C 3.449e-05
*END

*R_NET N336 4.680e-03
*DRIVER add_x_2/U27:S
*CELL had1_hd
*C2_R1_C1 2.340e-03 7.370e-03 2.340e-03 
*LOADS
*RC U388:C 3.449e-05
*END

*R_NET N337 4.680e-03
*DRIVER add_x_2/U26:S
*CELL had1_hd
*C2_R1_C1 2.340e-03 7.370e-03 2.340e-03 
*LOADS
*RC U389:C 3.449e-05
*END

*R_NET N338 4.680e-03
*DRIVER add_x_2/U25:S
*CELL had1_hd
*C2_R1_C1 2.340e-03 7.370e-03 2.340e-03 
*LOADS
*RC U390:C 3.449e-05
*END

*R_NET N339 4.680e-03
*DRIVER add_x_2/U24:S
*CELL had1_hd
*C2_R1_C1 2.340e-03 7.370e-03 2.340e-03 
*LOADS
*RC U391:C 3.449e-05
*END

*R_NET N340 4.680e-03
*DRIVER add_x_2/U23:S
*CELL had1_hd
*C2_R1_C1 2.340e-03 7.370e-03 2.340e-03 
*LOADS
*RC U392:C 3.449e-05
*END

*R_NET N341 4.680e-03
*DRIVER add_x_2/U22:S
*CELL had1_hd
*C2_R1_C1 2.340e-03 7.370e-03 2.340e-03 
*LOADS
*RC U393:C 3.449e-05
*END

*R_NET N342 4.680e-03
*DRIVER add_x_2/U21:S
*CELL had1_hd
*C2_R1_C1 2.340e-03 7.370e-03 2.340e-03 
*LOADS
*RC U394:C 3.449e-05
*END

*R_NET N343 4.680e-03
*DRIVER add_x_2/U20:S
*CELL had1_hd
*C2_R1_C1 2.340e-03 7.370e-03 2.340e-03 
*LOADS
*RC U395:C 3.449e-05
*END

*R_NET N344 4.680e-03
*DRIVER add_x_2/U19:S
*CELL had1_hd
*C2_R1_C1 2.340e-03 7.370e-03 2.340e-03 
*LOADS
*RC U396:C 3.449e-05
*END

*R_NET N345 4.680e-03
*DRIVER add_x_2/U18:S
*CELL had1_hd
*C2_R1_C1 2.340e-03 7.370e-03 2.340e-03 
*LOADS
*RC U397:C 3.449e-05
*END

*R_NET N346 4.680e-03
*DRIVER add_x_2/U17:S
*CELL had1_hd
*C2_R1_C1 2.340e-03 7.370e-03 2.340e-03 
*LOADS
*RC U398:C 3.449e-05
*END

*R_NET N347 4.680e-03
*DRIVER add_x_2/U16:S
*CELL had1_hd
*C2_R1_C1 2.340e-03 7.370e-03 2.340e-03 
*LOADS
*RC U399:C 3.449e-05
*END

*R_NET N348 4.680e-03
*DRIVER add_x_2/U15:S
*CELL had1_hd
*C2_R1_C1 2.340e-03 7.370e-03 2.340e-03 
*LOADS
*RC U400:C 3.449e-05
*END

*R_NET N349 4.680e-03
*DRIVER add_x_2/U14:S
*CELL had1_hd
*C2_R1_C1 2.340e-03 7.370e-03 2.340e-03 
*LOADS
*RC U401:C 3.449e-05
*END

*R_NET N350 4.680e-03
*DRIVER add_x_2/U13:S
*CELL had1_hd
*C2_R1_C1 2.340e-03 7.370e-03 2.340e-03 
*LOADS
*RC U402:C 3.449e-05
*END

*R_NET N351 4.680e-03
*DRIVER add_x_2/U12:S
*CELL had1_hd
*C2_R1_C1 2.340e-03 7.370e-03 2.340e-03 
*LOADS
*RC U382:C 3.449e-05
*END

*R_NET N352 4.680e-03
*DRIVER add_x_2/U11:S
*CELL had1_hd
*C2_R1_C1 2.340e-03 7.370e-03 2.340e-03 
*LOADS
*RC U381:C 3.449e-05
*END

*R_NET N353 4.680e-03
*DRIVER add_x_2/U10:S
*CELL had1_hd
*C2_R1_C1 2.340e-03 7.370e-03 2.340e-03 
*LOADS
*RC U379:C 3.449e-05
*END

*R_NET N354 4.680e-03
*DRIVER add_x_2/U9:S
*CELL had1_hd
*C2_R1_C1 2.340e-03 7.370e-03 2.340e-03 
*LOADS
*RC U378:C 3.449e-05
*END

*R_NET N355 4.680e-03
*DRIVER add_x_2/U8:S
*CELL had1_hd
*C2_R1_C1 2.340e-03 7.370e-03 2.340e-03 
*LOADS
*RC U377:C 3.449e-05
*END

*R_NET N356 4.680e-03
*DRIVER add_x_2/U7:S
*CELL had1_hd
*C2_R1_C1 2.340e-03 7.370e-03 2.340e-03 
*LOADS
*RC U376:C 3.449e-05
*END

*R_NET N357 4.680e-03
*DRIVER add_x_2/U6:S
*CELL had1_hd
*C2_R1_C1 2.340e-03 7.370e-03 2.340e-03 
*LOADS
*RC U375:C 3.449e-05
*END

*R_NET N358 4.680e-03
*DRIVER add_x_2/U5:S
*CELL had1_hd
*C2_R1_C1 2.340e-03 7.370e-03 2.340e-03 
*LOADS
*RC U374:C 3.449e-05
*END

*R_NET N359 4.680e-03
*DRIVER add_x_2/U4:S
*CELL had1_hd
*C2_R1_C1 2.340e-03 7.370e-03 2.340e-03 
*LOADS
*RC U373:C 3.449e-05
*END

*R_NET N360 4.680e-03
*DRIVER add_x_2/U3:S
*CELL had1_hd
*C2_R1_C1 2.340e-03 7.370e-03 2.340e-03 
*LOADS
*RC U372:C 3.449e-05
*END

*R_NET N361 4.680e-03
*DRIVER add_x_2/U2:S
*CELL had1_hd
*C2_R1_C1 2.340e-03 7.370e-03 2.340e-03 
*LOADS
*RC U371:C 3.449e-05
*END

*R_NET N362 4.680e-03
*DRIVER add_x_2/U35:Y
*CELL xo2d1_hd
*C2_R1_C1 2.340e-03 7.370e-03 2.340e-03 
*LOADS
*RC U370:C 3.449e-05
*END

*R_NET N942 1.561e-02
*DRIVER U770:Y
*CELL nr4d1_hd
*C2_R1_C1 7.805e-03 9.460e-03 7.805e-03 
*LOADS
*RC clk_r_REG118_S7:D 1.477e-04
*RC U769:A 1.477e-04
*RC U597:A 1.477e-04
*END

*R_NET N983 6.030e-03
*DRIVER U603:Y
*CELL ad2d1_hd
*C2_R1_C1 3.015e-03 7.370e-03 3.015e-03 
*LOADS
*RC clk_gate_clk_r_REG31_S13_0/latch:EN 4.444e-05
*END

*R_NET N984 6.030e-03
*DRIVER U6:Y
*CELL nr3d1_hd
*C2_R1_C1 3.015e-03 7.370e-03 3.015e-03 
*LOADS
*RC clk_gate_clk_r_REG33_S14_0/latch:EN 4.444e-05
*END

*R_NET N985 2.626e-02
*DRIVER U594:Y
*CELL nr2d1_hd
*C2_R1_C1 1.313e-02 1.094e-02 1.313e-02 
*LOADS
*RC clk_gate_clk_r_REG95_S7_0/latch:EN 2.873e-04
*RC clk_r_REG99_S8:E 2.873e-04
*RC clk_r_REG96_S3:E 2.873e-04
*RC clk_r_REG92_S3:E 2.873e-04
*END

*R_NET N1171 4.500e-03
*DRIVER U455:Y
*CELL clknd2d1_hd
*C2_R1_C1 2.250e-03 7.370e-03 2.250e-03 
*LOADS
*RC clk_r_REG92_S3:D 3.316e-05
*END

*R_NET n248 6.000e-03
*DRIVER U509:Y
*CELL ivd1_hd
*C2_R1_C1 3.000e-03 7.370e-03 3.000e-03 
*LOADS
*RC U622:B 4.422e-05
*END

*R_NET n253 1.466e-02
*DRIVER U525:Y
*CELL ivd1_hd
*C2_R1_C1 7.330e-03 9.460e-03 7.330e-03 
*LOADS
*RC U120:A 1.387e-04
*RC U124:C 1.387e-04
*RC U126:A 1.387e-04
*END

*R_NET n261 2.612e-02
*DRIVER U523:Y
*CELL ivd1_hd
*C2_R1_C1 1.306e-02 1.549e-02 1.306e-02 
*LOADS
*RC U9:D1 4.046e-04
*RC U12:D1 4.046e-04
*RC U13:D1 4.046e-04
*RC U124:B 4.046e-04
*RC U125:A 4.046e-04
*END

*R_NET n262 3.257e-02
*DRIVER U522:Y
*CELL ivd1_hd
*C2_R1_C1 1.629e-02 1.674e-02 1.629e-02 
*LOADS
*RC U10:D1 5.452e-04
*RC U11:D1 5.452e-04
*RC U16:A 5.452e-04
*RC U123:B 5.452e-04
*RC U124:A 5.452e-04
*RC U125:C 5.452e-04
*END

*R_NET n263 5.630e-03
*DRIVER U628:Y
*CELL ivd1_hd
*C2_R1_C1 2.815e-03 7.370e-03 2.815e-03 
*LOADS
*RC U627:B 4.149e-05
*END

*R_NET n265 2.724e-02
*DRIVER U356:Y
*CELL ivd1_hd
*C2_R1_C1 1.362e-02 1.549e-02 1.362e-02 
*LOADS
*RC U624:B 4.219e-04
*RC U609:B 4.219e-04
*RC U586:D 4.219e-04
*RC U558:C 4.219e-04
*RC U369:A 4.219e-04
*END

*R_NET n266 5.580e-03
*DRIVER U466:Y
*CELL clknd2d1_hd
*C2_R1_C1 2.790e-03 7.370e-03 2.790e-03 
*LOADS
*RC U132:B 4.112e-05
*END

*R_NET n267 6.630e-02
*DRIVER U8:Y
*CELL nr2ad1_hd
*C2_R1_C1 3.315e-02 2.212e-02 3.315e-02 
*LOADS
*RC clk_gate_clk_r_REG114_S8_0/latch:EN 1.467e-03
*RC U118:A 1.467e-03
*RC U128:A 1.467e-03
*RC U129:A 1.467e-03
*RC U130:A 1.467e-03
*RC U131:A 1.467e-03
*RC U627:A 1.467e-03
*RC U597:C 1.467e-03
*RC U589:D 1.467e-03
*RC U586:A 1.467e-03
*RC U466:A 1.467e-03
*RC U465:A 1.467e-03
*RC U356:A 1.467e-03
*RC U354:A 1.467e-03
*END

*R_NET n269 1.002e-02
*DRIVER U354:Y
*CELL clknd2d1_hd
*C2_R1_C1 5.010e-03 9.100e-03 5.010e-03 
*LOADS
*RC U17:A 9.118e-05
*RC U135:B 9.118e-05
*END

*R_NET n270 1.218e-01
*DRIVER U469:Y
*CELL nr4d6_hd
*C2_R1_C1 6.092e-02 3.642e-02 6.092e-02 
*LOADS
*RC U402:B 4.437e-03
*RC U401:B 4.437e-03
*RC U400:B 4.437e-03
*RC U399:B 4.437e-03
*RC U398:B 4.437e-03
*RC U397:B 4.437e-03
*RC U396:B 4.437e-03
*RC U395:B 4.437e-03
*RC U394:B 4.437e-03
*RC U393:B 4.437e-03
*RC U392:B 4.437e-03
*RC U391:B 4.437e-03
*RC U390:B 4.437e-03
*RC U389:B 4.437e-03
*RC U388:B 4.437e-03
*RC U387:B 4.437e-03
*RC U386:B 4.437e-03
*RC U385:B 4.437e-03
*RC U384:B 4.437e-03
*RC U383:B 4.437e-03
*RC U382:B 4.437e-03
*RC U381:B 4.437e-03
*RC U379:B 4.437e-03
*RC U378:B 4.437e-03
*RC U377:B 4.437e-03
*RC U376:B 4.437e-03
*RC U375:B 4.437e-03
*RC U374:B 4.437e-03
*RC U373:B 4.437e-03
*RC U372:B 4.437e-03
*RC U371:B 4.437e-03
*RC U370:B 4.437e-03
*END

*R_NET n271 1.183e-01
*DRIVER U468:Y
*CELL oa211d4_hd
*C2_R1_C1 5.916e-02 3.642e-02 5.916e-02 
*LOADS
*RC U402:D 4.309e-03
*RC U401:D 4.309e-03
*RC U400:D 4.309e-03
*RC U399:D 4.309e-03
*RC U398:D 4.309e-03
*RC U397:D 4.309e-03
*RC U396:D 4.309e-03
*RC U395:D 4.309e-03
*RC U394:D 4.309e-03
*RC U393:D 4.309e-03
*RC U392:D 4.309e-03
*RC U391:D 4.309e-03
*RC U390:D 4.309e-03
*RC U389:D 4.309e-03
*RC U388:D 4.309e-03
*RC U387:D 4.309e-03
*RC U386:D 4.309e-03
*RC U385:D 4.309e-03
*RC U384:D 4.309e-03
*RC U383:D 4.309e-03
*RC U382:D 4.309e-03
*RC U381:D 4.309e-03
*RC U379:D 4.309e-03
*RC U378:D 4.309e-03
*RC U377:D 4.309e-03
*RC U376:D 4.309e-03
*RC U375:D 4.309e-03
*RC U374:D 4.309e-03
*RC U373:D 4.309e-03
*RC U372:D 4.309e-03
*RC U371:D 4.309e-03
*RC U370:D 4.309e-03
*END

*R_NET n272 1.789e-02
*DRIVER U326:Y
*CELL clknd2d1_hd
*C2_R1_C1 8.945e-03 9.100e-03 8.945e-03 
*LOADS
*RC U665:D 1.628e-04
*RC U468:A 1.628e-04
*END

*R_NET n273 1.770e-02
*DRIVER U325:Y
*CELL clknd2d1_hd
*C2_R1_C1 8.850e-03 9.100e-03 8.850e-03 
*LOADS
*RC U674:A 1.611e-04
*RC U468:B 1.611e-04
*END

*R_NET n274 1.626e-02
*DRIVER U679:Y
*CELL ao21d1_hd
*C2_R1_C1 8.130e-03 9.100e-03 8.130e-03 
*LOADS
*RC U664:C 1.480e-04
*RC U468:C 1.480e-04
*END

*R_NET n275 1.160e-02
*DRIVER U529:Y
*CELL ao211d1_hd
*C2_R1_C1 5.800e-03 7.370e-03 5.800e-03 
*LOADS
*RC U468:D 8.549e-05
*END

*R_NET n276 1.127e-02
*DRIVER U696:Y
*CELL scg20d1_hd
*C2_R1_C1 5.635e-03 9.100e-03 5.635e-03 
*LOADS
*RC U664:A 1.026e-04
*RC U529:A 1.026e-04
*END

*R_NET n277 1.065e-02
*DRIVER U695:Y
*CELL nr2d1_hd
*C2_R1_C1 5.325e-03 9.100e-03 5.325e-03 
*LOADS
*RC U694:A 9.691e-05
*RC U529:B 9.691e-05
*END

*R_NET n278 1.110e-02
*DRIVER U620:Y
*CELL nr2bd1_hd
*C2_R1_C1 5.550e-03 9.100e-03 5.550e-03 
*LOADS
*RC U616:A 1.010e-04
*RC U529:C 1.010e-04
*END

*R_NET n279 1.119e-02
*DRIVER U634:Y
*CELL oa22d1_hd
*C2_R1_C1 5.595e-03 9.100e-03 5.595e-03 
*LOADS
*RC U633:C 1.018e-04
*RC U529:D 1.018e-04
*END

*R_NET n280 4.298e-02
*DRIVER U662:Y
*CELL nr2d1_hd
*C2_R1_C1 2.149e-02 1.549e-02 2.149e-02 
*LOADS
*RC U659:C 6.658e-04
*RC U642:A 6.658e-04
*RC U605:A 6.658e-04
*RC U585:A 6.658e-04
*RC U469:A 6.658e-04
*END

*R_NET n281 4.240e-02
*DRIVER U777:Y
*CELL nr2d1_hd
*C2_R1_C1 2.120e-02 1.549e-02 2.120e-02 
*LOADS
*RC U773:A 6.568e-04
*RC U765:A 6.568e-04
*RC U595:A 6.568e-04
*RC U469:B 6.568e-04
*RC U345:A 6.568e-04
*END

*R_NET n282 2.421e-02
*DRIVER U560:Y
*CELL nr2d1_hd
*C2_R1_C1 1.211e-02 9.100e-03 1.211e-02 
*LOADS
*RC U469:C 2.203e-04
*RC U457:D0 2.203e-04
*END

*R_NET n283 2.037e-02
*DRIVER U470:Y
*CELL clknd2d1_hd
*C2_R1_C1 1.018e-02 7.370e-03 1.018e-02 
*LOADS
*RC U469:D 1.501e-04
*END

*R_NET n284 1.042e-02
*DRIVER U536:Y
*CELL nr2d1_hd
*C2_R1_C1 5.210e-03 9.100e-03 5.210e-03 
*LOADS
*RC U535:B 9.482e-05
*RC U470:A 9.482e-05
*END

*R_NET n285 9.630e-03
*DRIVER U331:Y
*CELL clknd2d1_hd
*C2_R1_C1 4.815e-03 9.100e-03 4.815e-03 
*LOADS
*RC U675:A 8.763e-05
*RC U470:B 8.763e-05
*END

*R_NET n286 1.045e-02
*DRIVER U7:Y
*CELL ivd1_hd
*C2_R1_C1 5.225e-03 9.100e-03 5.225e-03 
*LOADS
*RC clk_gate_clk_r_REG32_S13_0/latch:EN 9.510e-05
*RC U367:A 9.510e-05
*END

*R_NET n287 1.033e-02
*DRIVER U5:Y
*CELL clknd2d1_hd
*C2_R1_C1 5.165e-03 9.100e-03 5.165e-03 
*LOADS
*RC U7:A 9.400e-05
*RC U648:B 9.400e-05
*END

*R_NET n288 1.025e-02
*DRIVER U532:Y
*CELL ivd1_hd
*C2_R1_C1 5.125e-03 9.100e-03 5.125e-03 
*LOADS
*RC u_cell_7677:D1 9.328e-05
*RC U409:B 9.328e-05
*END

*R_NET n289 9.220e-03
*DRIVER U531:Y
*CELL nr2d1_hd
*C2_R1_C1 4.610e-03 9.100e-03 4.610e-03 
*LOADS
*RC clk_r_REG98_S6_U5:A 8.390e-05
*RC U408:B 8.390e-05
*END

*R_NET n290 4.670e-03
*DRIVER U409:Y
*CELL clknd2d1_hd
*C2_R1_C1 2.335e-03 7.370e-03 2.335e-03 
*LOADS
*RC U408:D 3.442e-05
*END

*R_NET n291 1.611e-02
*DRIVER U360:Y
*CELL clknd2d1_hd
*C2_R1_C1 8.055e-03 9.460e-03 8.055e-03 
*LOADS
*RC U653:D 1.524e-04
*RC U531:B 1.524e-04
*RC U409:A 1.524e-04
*END

*R_NET n292 9.960e-03
*DRIVER U533:Y
*CELL ao21d1_hd
*C2_R1_C1 4.980e-03 9.100e-03 4.980e-03 
*LOADS
*RC U532:A 9.064e-05
*RC U531:A 9.064e-05
*END

*R_NET n293 5.830e-03
*DRIVER U534:Y
*CELL scg16d1_hd
*C2_R1_C1 2.915e-03 7.370e-03 2.915e-03 
*LOADS
*RC U533:A 4.297e-05
*END

*R_NET n294 2.353e-02
*DRIVER U774:Y
*CELL nr2d1_hd
*C2_R1_C1 1.176e-02 1.094e-02 1.176e-02 
*LOADS
*RC U773:C 2.574e-04
*RC U713:B 2.574e-04
*RC U533:B 2.574e-04
*RC U360:B 2.574e-04
*END

*R_NET n295 1.729e-02
*DRIVER U584:Y
*CELL ivd1_hd
*C2_R1_C1 8.645e-03 9.460e-03 8.645e-03 
*LOADS
*RC U583:A 1.636e-04
*RC U559:D 1.636e-04
*RC U533:C 1.636e-04
*END

*R_NET n296 1.004e-02
*DRIVER U329:Y
*CELL clknd2d1_hd
*C2_R1_C1 5.020e-03 9.100e-03 5.020e-03 
*LOADS
*RC U534:C 9.136e-05
*RC U360:A 9.136e-05
*END

*R_NET n297 1.029e-02
*DRIVER U537:Y
*CELL ao211d1_hd
*C2_R1_C1 5.145e-03 9.100e-03 5.145e-03 
*LOADS
*RC U535:A 9.364e-05
*RC U458:A 9.364e-05
*END

*R_NET n298 1.070e-02
*DRIVER U757:Y
*CELL scg13d1_hd
*C2_R1_C1 5.350e-03 9.100e-03 5.350e-03 
*LOADS
*RC U756:D 9.737e-05
*RC U535:C 9.737e-05
*END

*R_NET n299 5.610e-03
*DRIVER U458:Y
*CELL clknd2d1_hd
*C2_R1_C1 2.805e-03 7.370e-03 2.805e-03 
*LOADS
*RC U535:D 4.135e-05
*END

*R_NET n300 1.560e-02
*DRIVER U636:Y
*CELL nr2d1_hd
*C2_R1_C1 7.800e-03 9.460e-03 7.800e-03 
*LOADS
*RC U635:A 1.476e-04
*RC U536:A 1.476e-04
*RC U347:A 1.476e-04
*END

*R_NET n301 2.809e-02
*DRIVER U731:Y
*CELL nr2d1_hd
*C2_R1_C1 1.405e-02 1.549e-02 1.405e-02 
*LOADS
*RC U713:A 4.351e-04
*RC U643:C 4.351e-04
*RC U620:AN 4.351e-04
*RC U537:A 4.351e-04
*RC U536:B 4.351e-04
*END

*R_NET n302 3.522e-02
*DRIVER U660:Y
*CELL nd2bd1_hd
*C2_R1_C1 1.761e-02 1.674e-02 1.761e-02 
*LOADS
*RC U659:D 5.896e-04
*RC U643:D 5.896e-04
*RC U634:C 5.896e-04
*RC U620:B 5.896e-04
*RC U585:B 5.896e-04
*RC U537:B 5.896e-04
*END

*R_NET n303 9.750e-03
*DRIVER U621:Y
*CELL ivd1_hd
*C2_R1_C1 4.875e-03 9.100e-03 4.875e-03 
*LOADS
*RC U610:B 8.873e-05
*RC U537:C 8.873e-05
*END

*R_NET n304 9.950e-03
*DRIVER U369:Y
*CELL clknd2d1_hd
*C2_R1_C1 4.975e-03 9.100e-03 4.975e-03 
*LOADS
*RC U771:AN 9.054e-05
*RC U537:D 9.054e-05
*END

*R_NET n305 4.780e-03
*DRIVER U539:Y
*CELL oa21d1_hd
*C2_R1_C1 2.390e-03 7.370e-03 2.390e-03 
*LOADS
*RC U380:B 3.523e-05
*END

*R_NET n306 4.680e-03
*DRIVER U538:Y
*CELL nr2d1_hd
*C2_R1_C1 2.340e-03 7.370e-03 2.340e-03 
*LOADS
*RC U380:C 3.449e-05
*END

*R_NET n307 1.069e-02
*DRIVER U343:Y
*CELL clknd2d1_hd
*C2_R1_C1 5.345e-03 9.100e-03 5.345e-03 
*LOADS
*RC U542:C 9.728e-05
*RC U538:B 9.728e-05
*END

*R_NET n308 3.839e-02
*DRIVER U726:Y
*CELL nd3d1_hd
*C2_R1_C1 1.920e-02 1.715e-02 1.920e-02 
*LOADS
*RC U653:B 6.584e-04
*RC U608:A 6.584e-04
*RC U550:A 6.584e-04
*RC U548:A 6.584e-04
*RC U547:A 6.584e-04
*RC U539:A 6.584e-04
*RC U358:A 6.584e-04
*END

*R_NET n309 1.059e-02
*DRIVER U546:Y
*CELL ao21d1_hd
*C2_R1_C1 5.295e-03 9.100e-03 5.295e-03 
*LOADS
*RC U542:B 9.637e-05
*RC U539:C 9.637e-05
*END

*R_NET n310 1.622e-02
*DRIVER U548:Y
*CELL oa211d1_hd
*C2_R1_C1 8.110e-03 9.460e-03 8.110e-03 
*LOADS
*RC U547:C 1.534e-04
*RC U540:B 1.534e-04
*RC U344:B 1.534e-04
*END

*R_NET n311 1.069e-02
*DRIVER U344:Y
*CELL clknd2d1_hd
*C2_R1_C1 5.345e-03 9.100e-03 5.345e-03 
*LOADS
*RC U544:B 9.728e-05
*RC U540:C 9.728e-05
*END

*R_NET n312 1.064e-02
*DRIVER U545:Y
*CELL ivd1_hd
*C2_R1_C1 5.320e-03 9.100e-03 5.320e-03 
*LOADS
*RC U544:A 9.682e-05
*RC U540:D 9.682e-05
*END

*R_NET n313 9.780e-03
*DRIVER clk_r_REG90_S13:QN
*CELL fd2d1_hd
*C2_R1_C1 4.890e-03 9.100e-03 4.890e-03 
*LOADS
*RC U546:B 8.900e-05
*RC U541:A 8.900e-05
*END

*R_NET n314 9.620e-03
*DRIVER U547:Y
*CELL oa21d1_hd
*C2_R1_C1 4.810e-03 9.100e-03 4.810e-03 
*LOADS
*RC U546:C 8.754e-05
*RC U541:B 8.754e-05
*END

*R_NET n315 9.020e-03
*DRIVER U544:Y
*CELL nr2d1_hd
*C2_R1_C1 4.510e-03 9.100e-03 4.510e-03 
*LOADS
*RC U541:C 8.208e-05
*RC U343:B 8.208e-05
*END

*R_NET n316 5.900e-03
*DRIVER clk_r_REG89_S13:QN
*CELL fd2d1_hd
*C2_R1_C1 2.950e-03 7.370e-03 2.950e-03 
*LOADS
*RC U542:D 4.348e-05
*END

*R_NET n317 1.025e-02
*DRIVER U550:Y
*CELL ivd1_hd
*C2_R1_C1 5.125e-03 9.100e-03 5.125e-03 
*LOADS
*RC U546:A 9.328e-05
*RC U344:A 9.328e-05
*END

*R_NET n318 3.518e-02
*DRIVER U730:Y
*CELL ivd1_hd
*C2_R1_C1 1.759e-02 1.674e-02 1.759e-02 
*LOADS
*RC U716:A 5.889e-04
*RC U623:B 5.889e-04
*RC U619:A 5.889e-04
*RC U606:A 5.889e-04
*RC U598:B 5.889e-04
*RC U548:B 5.889e-04
*END

*R_NET n319 2.534e-02
*DRIVER U362:Y
*CELL clknd2d1_hd
*C2_R1_C1 1.267e-02 1.549e-02 1.267e-02 
*LOADS
*RC U584:A 3.925e-04
*RC U548:C 3.925e-04
*RC U453:D 3.925e-04
*RC U410:B 3.925e-04
*RC U333:B 3.925e-04
*END

*R_NET n320 1.610e-02
*DRIVER U367:Y
*CELL clknd2d1_hd
*C2_R1_C1 8.050e-03 9.460e-03 8.050e-03 
*LOADS
*RC U615:A 1.523e-04
*RC U596:D 1.523e-04
*RC U548:D 1.523e-04
*END

*R_NET n322 1.018e-02
*DRIVER U349:Y
*CELL clknd2d1_hd
*C2_R1_C1 5.090e-03 9.100e-03 5.090e-03 
*LOADS
*RC U134:A 9.264e-05
*RC U626:E 9.264e-05
*END

*R_NET n325 1.066e-02
*DRIVER U719:Y
*CELL ivd1_hd
*C2_R1_C1 5.330e-03 9.100e-03 5.330e-03 
*LOADS
*RC U718:C 9.701e-05
*RC U565:A 9.701e-05
*END

*R_NET n326 1.080e-02
*DRIVER clk_r_REG103_S8:QN
*CELL fd2d1_hd
*C2_R1_C1 5.400e-03 9.100e-03 5.400e-03 
*LOADS
*RC U720:D 9.828e-05
*RC U567:A 9.828e-05
*END

*R_NET n327 5.840e-03
*DRIVER U572:Y
*CELL ivd1_hd
*C2_R1_C1 2.920e-03 7.370e-03 2.920e-03 
*LOADS
*RC U569:A 4.304e-05
*END

*R_NET n329 9.980e-03
*DRIVER U761:Y
*CELL ivd1_hd
*C2_R1_C1 4.990e-03 9.100e-03 4.990e-03 
*LOADS
*RC U630:C 9.082e-05
*RC U455:B 9.082e-05
*END

*R_NET n330 2.190e-02