*SPEF "IEEE 1481-1999"
*DESIGN "uart_controller"
*DATE "Tue Jun  9 04:31:09 2020"
*VENDOR "SYNOPSYS INC"
*PROGRAM "Synopsys Design Compiler cmos"
*VERSION "F-2011.09-SP5-3"
*DESIGN_FLOW "SYNTHESIS"
*DIVIDER /
*DELIMITER :
*BUS_DELIMITER []
*T_UNIT 1.0 NS
*C_UNIT 1.0 PF
*R_UNIT 1.0 KOHM
*L_UNIT 1.0 HENRY

*PORTS

i_UART_DATA_TX\[55\] I *L 0.000e+00 *S 0.000e+00 0.000e+00 
i_UART_DATA_TX\[54\] I *L 0.000e+00 *S 0.000e+00 0.000e+00 
i_UART_DATA_TX\[53\] I *L 0.000e+00 *S 0.000e+00 0.000e+00 
i_UART_DATA_TX\[52\] I *L 0.000e+00 *S 0.000e+00 0.000e+00 
i_UART_DATA_TX\[51\] I *L 0.000e+00 *S 0.000e+00 0.000e+00 
i_UART_DATA_TX\[50\] I *L 0.000e+00 *S 0.000e+00 0.000e+00 
i_UART_DATA_TX\[49\] I *L 0.000e+00 *S 0.000e+00 0.000e+00 
i_UART_DATA_TX\[48\] I *L 0.000e+00 *S 0.000e+00 0.000e+00 
i_UART_DATA_TX\[47\] I *L 0.000e+00 *S 0.000e+00 0.000e+00 
i_UART_DATA_TX\[46\] I *L 0.000e+00 *S 0.000e+00 0.000e+00 
i_UART_DATA_TX\[45\] I *L 0.000e+00 *S 0.000e+00 0.000e+00 
i_UART_DATA_TX\[44\] I *L 0.000e+00 *S 0.000e+00 0.000e+00 
i_UART_DATA_TX\[43\] I *L 0.000e+00 *S 0.000e+00 0.000e+00 
i_UART_DATA_TX\[42\] I *L 0.000e+00 *S 0.000e+00 0.000e+00 
i_UART_DATA_TX\[41\] I *L 0.000e+00 *S 0.000e+00 0.000e+00 
i_UART_DATA_TX\[40\] I *L 0.000e+00 *S 0.000e+00 0.000e+00 
i_UART_DATA_TX\[39\] I *L 0.000e+00 *S 0.000e+00 0.000e+00 
i_UART_DATA_TX\[38\] I *L 0.000e+00 *S 0.000e+00 0.000e+00 
i_UART_DATA_TX\[37\] I *L 0.000e+00 *S 0.000e+00 0.000e+00 
i_UART_DATA_TX\[36\] I *L 0.000e+00 *S 0.000e+00 0.000e+00 
i_UART_DATA_TX\[35\] I *L 0.000e+00 *S 0.000e+00 0.000e+00 
i_UART_DATA_TX\[34\] I *L 0.000e+00 *S 0.000e+00 0.000e+00 
i_UART_DATA_TX\[33\] I *L 0.000e+00 *S 0.000e+00 0.000e+00 
i_UART_DATA_TX\[32\] I *L 0.000e+00 *S 0.000e+00 0.000e+00 
i_UART_DATA_TX\[31\] I *L 0.000e+00 *S 0.000e+00 0.000e+00 
i_UART_DATA_TX\[30\] I *L 0.000e+00 *S 0.000e+00 0.000e+00 
i_UART_DATA_TX\[29\] I *L 0.000e+00 *S 0.000e+00 0.000e+00 
i_UART_DATA_TX\[28\] I *L 0.000e+00 *S 0.000e+00 0.000e+00 
i_UART_DATA_TX\[27\] I *L 0.000e+00 *S 0.000e+00 0.000e+00 
i_UART_DATA_TX\[26\] I *L 0.000e+00 *S 0.000e+00 0.000e+00 
i_UART_DATA_TX\[25\] I *L 0.000e+00 *S 0.000e+00 0.000e+00 
i_UART_DATA_TX\[24\] I *L 0.000e+00 *S 0.000e+00 0.000e+00 
i_UART_DATA_TX\[23\] I *L 0.000e+00 *S 0.000e+00 0.000e+00 
i_UART_DATA_TX\[22\] I *L 0.000e+00 *S 0.000e+00 0.000e+00 
i_UART_DATA_TX\[21\] I *L 0.000e+00 *S 0.000e+00 0.000e+00 
i_UART_DATA_TX\[20\] I *L 0.000e+00 *S 0.000e+00 0.000e+00 
i_UART_DATA_TX\[19\] I *L 0.000e+00 *S 0.000e+00 0.000e+00 
i_UART_DATA_TX\[18\] I *L 0.000e+00 *S 0.000e+00 0.000e+00 
i_UART_DATA_TX\[17\] I *L 0.000e+00 *S 0.000e+00 0.000e+00 
i_UART_DATA_TX\[16\] I *L 0.000e+00 *S 0.000e+00 0.000e+00 
i_UART_DATA_TX\[15\] I *L 0.000e+00 *S 0.000e+00 0.000e+00 
i_UART_DATA_TX\[14\] I *L 0.000e+00 *S 0.000e+00 0.000e+00 
i_UART_DATA_TX\[13\] I *L 0.000e+00 *S 0.000e+00 0.000e+00 
i_UART_DATA_TX\[12\] I *L 0.000e+00 *S 0.000e+00 0.000e+00 
i_UART_DATA_TX\[11\] I *L 0.000e+00 *S 0.000e+00 0.000e+00 
i_UART_DATA_TX\[10\] I *L 0.000e+00 *S 0.000e+00 0.000e+00 
i_UART_DATA_TX\[9\] I *L 0.000e+00 *S 0.000e+00 0.000e+00 
i_UART_DATA_TX\[8\] I *L 0.000e+00 *S 0.000e+00 0.000e+00 
i_UART_DATA_TX\[7\] I *L 0.000e+00 *S 0.000e+00 0.000e+00 
i_UART_DATA_TX\[6\] I *L 0.000e+00 *S 0.000e+00 0.000e+00 
i_UART_DATA_TX\[5\] I *L 0.000e+00 *S 0.000e+00 0.000e+00 
i_UART_DATA_TX\[4\] I *L 0.000e+00 *S 0.000e+00 0.000e+00 
i_UART_DATA_TX\[3\] I *L 0.000e+00 *S 0.000e+00 0.000e+00 
i_UART_DATA_TX\[2\] I *L 0.000e+00 *S 0.000e+00 0.000e+00 
i_UART_DATA_TX\[1\] I *L 0.000e+00 *S 0.000e+00 0.000e+00 
i_UART_DATA_TX\[0\] I *L 0.000e+00 *S 0.000e+00 0.000e+00 
i_UART_DATA_TX_VALID I *L 0.000e+00 *S 0.000e+00 0.000e+00 
o_UART_DATA_TX_READY O *L 1.035e-02 *S 1.730e-01 1.925e-01 
o_UART_DATA_RX\[15\] O *L 1.035e-02 *S 1.730e-01 1.925e-01 
o_UART_DATA_RX\[14\] O *L 1.035e-02 *S 1.730e-01 1.925e-01 
o_UART_DATA_RX\[13\] O *L 1.035e-02 *S 1.730e-01 1.925e-01 
o_UART_DATA_RX\[12\] O *L 1.035e-02 *S 1.730e-01 1.925e-01 
o_UART_DATA_RX\[11\] O *L 1.035e-02 *S 1.730e-01 1.925e-01 
o_UART_DATA_RX\[10\] O *L 1.035e-02 *S 1.730e-01 1.925e-01 
o_UART_DATA_RX\[9\] O *L 1.035e-02 *S 1.730e-01 1.925e-01 
o_UART_DATA_RX\[8\] O *L 1.035e-02 *S 1.730e-01 1.925e-01 
o_UART_DATA_RX\[7\] O *L 1.035e-02 *S 1.730e-01 1.925e-01 
o_UART_DATA_RX\[6\] O *L 1.035e-02 *S 1.730e-01 1.925e-01 
o_UART_DATA_RX\[5\] O *L 1.035e-02 *S 1.730e-01 1.925e-01 
o_UART_DATA_RX\[4\] O *L 1.035e-02 *S 1.730e-01 1.925e-01 
o_UART_DATA_RX\[3\] O *L 1.035e-02 *S 1.730e-01 1.925e-01 
o_UART_DATA_RX\[2\] O *L 1.035e-02 *S 1.730e-01 1.925e-01 
o_UART_DATA_RX\[1\] O *L 1.035e-02 *S 1.730e-01 1.925e-01 
o_UART_DATA_RX\[0\] O *L 1.035e-02 *S 1.730e-01 1.925e-01 
o_UART_DATA_RX_VALID O *L 1.035e-02 *S 1.730e-01 1.925e-01 
i_CORE_BUSY I *L 0.000e+00 *S 0.000e+00 0.000e+00 
i_UART_RXD I *L 0.000e+00 *S 0.000e+00 0.000e+00 
o_UART_TXD O *L 1.035e-02 *S 1.675e-01 1.273e-01 
i_CLK I *L 0.000e+00 *S 0.000e+00 0.000e+00 
i_RST I *L 0.000e+00 *S 0.000e+00 0.000e+00 

*R_NET i_UART_DATA_TX\[55\] 4.680e-03
*DRIVER i_UART_DATA_TX\[55\]
*CELL NULL
*C2_R1_C1 2.340e-03 7.370e-03 2.340e-03 
*LOADS
*RC U475:C 3.449e-05
*END

*R_NET i_UART_DATA_TX\[54\] 4.680e-03
*DRIVER i_UART_DATA_TX\[54\]
*CELL NULL
*C2_R1_C1 2.340e-03 7.370e-03 2.340e-03 
*LOADS
*RC U473:C 3.449e-05
*END

*R_NET i_UART_DATA_TX\[53\] 4.680e-03
*DRIVER i_UART_DATA_TX\[53\]
*CELL NULL
*C2_R1_C1 2.340e-03 7.370e-03 2.340e-03 
*LOADS
*RC U471:C 3.449e-05
*END

*R_NET i_UART_DATA_TX\[52\] 4.680e-03
*DRIVER i_UART_DATA_TX\[52\]
*CELL NULL
*C2_R1_C1 2.340e-03 7.370e-03 2.340e-03 
*LOADS
*RC U469:C 3.449e-05
*END

*R_NET i_UART_DATA_TX\[51\] 4.680e-03
*DRIVER i_UART_DATA_TX\[51\]
*CELL NULL
*C2_R1_C1 2.340e-03 7.370e-03 2.340e-03 
*LOADS
*RC U467:C 3.449e-05
*END

*R_NET i_UART_DATA_TX\[50\] 4.680e-03
*DRIVER i_UART_DATA_TX\[50\]
*CELL NULL
*C2_R1_C1 2.340e-03 7.370e-03 2.340e-03 
*LOADS
*RC U465:C 3.449e-05
*END

*R_NET i_UART_DATA_TX\[49\] 4.680e-03
*DRIVER i_UART_DATA_TX\[49\]
*CELL NULL
*C2_R1_C1 2.340e-03 7.370e-03 2.340e-03 
*LOADS
*RC U463:C 3.449e-05
*END

*R_NET i_UART_DATA_TX\[48\] 4.680e-03
*DRIVER i_UART_DATA_TX\[48\]
*CELL NULL
*C2_R1_C1 2.340e-03 7.370e-03 2.340e-03 
*LOADS
*RC U461:C 3.449e-05
*END

*R_NET i_UART_DATA_TX\[47\] 4.680e-03
*DRIVER i_UART_DATA_TX\[47\]
*CELL NULL
*C2_R1_C1 2.340e-03 7.370e-03 2.340e-03 
*LOADS
*RC U459:C 3.449e-05
*END

*R_NET i_UART_DATA_TX\[46\] 4.680e-03
*DRIVER i_UART_DATA_TX\[46\]
*CELL NULL
*C2_R1_C1 2.340e-03 7.370e-03 2.340e-03 
*LOADS
*RC U457:C 3.449e-05
*END

*R_NET i_UART_DATA_TX\[45\] 4.680e-03
*DRIVER i_UART_DATA_TX\[45\]
*CELL NULL
*C2_R1_C1 2.340e-03 7.370e-03 2.340e-03 
*LOADS
*RC U455:C 3.449e-05
*END

*R_NET i_UART_DATA_TX\[44\] 4.680e-03
*DRIVER i_UART_DATA_TX\[44\]
*CELL NULL
*C2_R1_C1 2.340e-03 7.370e-03 2.340e-03 
*LOADS
*RC U453:C 3.449e-05
*END

*R_NET i_UART_DATA_TX\[43\] 4.680e-03
*DRIVER i_UART_DATA_TX\[43\]
*CELL NULL
*C2_R1_C1 2.340e-03 7.370e-03 2.340e-03 
*LOADS
*RC U451:C 3.449e-05
*END

*R_NET i_UART_DATA_TX\[42\] 4.680e-03
*DRIVER i_UART_DATA_TX\[42\]
*CELL NULL
*C2_R1_C1 2.340e-03 7.370e-03 2.340e-03 
*LOADS
*RC U449:C 3.449e-05
*END

*R_NET i_UART_DATA_TX\[41\] 4.680e-03
*DRIVER i_UART_DATA_TX\[41\]
*CELL NULL
*C2_R1_C1 2.340e-03 7.370e-03 2.340e-03 
*LOADS
*RC U447:C 3.449e-05
*END

*R_NET i_UART_DATA_TX\[40\] 4.680e-03
*DRIVER i_UART_DATA_TX\[40\]
*CELL NULL
*C2_R1_C1 2.340e-03 7.370e-03 2.340e-03 
*LOADS
*RC U445:C 3.449e-05
*END

*R_NET i_UART_DATA_TX\[39\] 4.680e-03
*DRIVER i_UART_DATA_TX\[39\]
*CELL NULL
*C2_R1_C1 2.340e-03 7.370e-03 2.340e-03 
*LOADS
*RC U443:C 3.449e-05
*END

*R_NET i_UART_DATA_TX\[38\] 4.680e-03
*DRIVER i_UART_DATA_TX\[38\]
*CELL NULL
*C2_R1_C1 2.340e-03 7.370e-03 2.340e-03 
*LOADS
*RC U441:C 3.449e-05
*END

*R_NET i_UART_DATA_TX\[37\] 4.680e-03
*DRIVER i_UART_DATA_TX\[37\]
*CELL NULL
*C2_R1_C1 2.340e-03 7.370e-03 2.340e-03 
*LOADS
*RC U439:C 3.449e-05
*END

*R_NET i_UART_DATA_TX\[36\] 4.680e-03
*DRIVER i_UART_DATA_TX\[36\]
*CELL NULL
*C2_R1_C1 2.340e-03 7.370e-03 2.340e-03 
*LOADS
*RC U437:C 3.449e-05
*END

*R_NET i_UART_DATA_TX\[35\] 4.680e-03
*DRIVER i_UART_DATA_TX\[35\]
*CELL NULL
*C2_R1_C1 2.340e-03 7.370e-03 2.340e-03 
*LOADS
*RC U435:C 3.449e-05
*END

*R_NET i_UART_DATA_TX\[34\] 4.680e-03
*DRIVER i_UART_DATA_TX\[34\]
*CELL NULL
*C2_R1_C1 2.340e-03 7.370e-03 2.340e-03 
*LOADS
*RC U433:C 3.449e-05
*END

*R_NET i_UART_DATA_TX\[33\] 4.680e-03
*DRIVER i_UART_DATA_TX\[33\]
*CELL NULL
*C2_R1_C1 2.340e-03 7.370e-03 2.340e-03 
*LOADS
*RC U431:C 3.449e-05
*END

*R_NET i_UART_DATA_TX\[32\] 4.680e-03
*DRIVER i_UART_DATA_TX\[32\]
*CELL NULL
*C2_R1_C1 2.340e-03 7.370e-03 2.340e-03 
*LOADS
*RC U429:C 3.449e-05
*END

*R_NET i_UART_DATA_TX\[31\] 4.680e-03
*DRIVER i_UART_DATA_TX\[31\]
*CELL NULL
*C2_R1_C1 2.340e-03 7.370e-03 2.340e-03 
*LOADS
*RC U427:C 3.449e-05
*END

*R_NET i_UART_DATA_TX\[30\] 4.680e-03
*DRIVER i_UART_DATA_TX\[30\]
*CELL NULL
*C2_R1_C1 2.340e-03 7.370e-03 2.340e-03 
*LOADS
*RC U425:C 3.449e-05
*END

*R_NET i_UART_DATA_TX\[29\] 4.680e-03
*DRIVER i_UART_DATA_TX\[29\]
*CELL NULL
*C2_R1_C1 2.340e-03 7.370e-03 2.340e-03 
*LOADS
*RC U423:C 3.449e-05
*END

*R_NET i_UART_DATA_TX\[28\] 4.680e-03
*DRIVER i_UART_DATA_TX\[28\]
*CELL NULL
*C2_R1_C1 2.340e-03 7.370e-03 2.340e-03 
*LOADS
*RC U421:C 3.449e-05
*END

*R_NET i_UART_DATA_TX\[27\] 4.680e-03
*DRIVER i_UART_DATA_TX\[27\]
*CELL NULL
*C2_R1_C1 2.340e-03 7.370e-03 2.340e-03 
*LOADS
*RC U419:C 3.449e-05
*END

*R_NET i_UART_DATA_TX\[26\] 4.680e-03
*DRIVER i_UART_DATA_TX\[26\]
*CELL NULL
*C2_R1_C1 2.340e-03 7.370e-03 2.340e-03 
*LOADS
*RC U417:C 3.449e-05
*END

*R_NET i_UART_DATA_TX\[25\] 4.680e-03
*DRIVER i_UART_DATA_TX\[25\]
*CELL NULL
*C2_R1_C1 2.340e-03 7.370e-03 2.340e-03 
*LOADS
*RC U415:C 3.449e-05
*END

*R_NET i_UART_DATA_TX\[24\] 4.680e-03
*DRIVER i_UART_DATA_TX\[24\]
*CELL NULL
*C2_R1_C1 2.340e-03 7.370e-03 2.340e-03 
*LOADS
*RC U413:C 3.449e-05
*END

*R_NET i_UART_DATA_TX\[23\] 4.680e-03
*DRIVER i_UART_DATA_TX\[23\]
*CELL NULL
*C2_R1_C1 2.340e-03 7.370e-03 2.340e-03 
*LOADS
*RC U411:C 3.449e-05
*END

*R_NET i_UART_DATA_TX\[22\] 4.680e-03
*DRIVER i_UART_DATA_TX\[22\]
*CELL NULL
*C2_R1_C1 2.340e-03 7.370e-03 2.340e-03 
*LOADS
*RC U409:C 3.449e-05
*END

*R_NET i_UART_DATA_TX\[21\] 4.680e-03
*DRIVER i_UART_DATA_TX\[21\]
*CELL NULL
*C2_R1_C1 2.340e-03 7.370e-03 2.340e-03 
*LOADS
*RC U407:C 3.449e-05
*END

*R_NET i_UART_DATA_TX\[20\] 4.680e-03
*DRIVER i_UART_DATA_TX\[20\]
*CELL NULL
*C2_R1_C1 2.340e-03 7.370e-03 2.340e-03 
*LOADS
*RC U405:C 3.449e-05
*END

*R_NET i_UART_DATA_TX\[19\] 4.680e-03
*DRIVER i_UART_DATA_TX\[19\]
*CELL NULL
*C2_R1_C1 2.340e-03 7.370e-03 2.340e-03 
*LOADS
*RC U403:C 3.449e-05
*END

*R_NET i_UART_DATA_TX\[18\] 4.680e-03
*DRIVER i_UART_DATA_TX\[18\]
*CELL NULL
*C2_R1_C1 2.340e-03 7.370e-03 2.340e-03 
*LOADS
*RC U401:C 3.449e-05
*END

*R_NET i_UART_DATA_TX\[17\] 4.680e-03
*DRIVER i_UART_DATA_TX\[17\]
*CELL NULL
*C2_R1_C1 2.340e-03 7.370e-03 2.340e-03 
*LOADS
*RC U399:C 3.449e-05
*END

*R_NET i_UART_DATA_TX\[16\] 4.680e-03
*DRIVER i_UART_DATA_TX\[16\]
*CELL NULL
*C2_R1_C1 2.340e-03 7.370e-03 2.340e-03 
*LOADS
*RC U397:C 3.449e-05
*END

*R_NET i_UART_DATA_TX\[15\] 4.680e-03
*DRIVER i_UART_DATA_TX\[15\]
*CELL NULL
*C2_R1_C1 2.340e-03 7.370e-03 2.340e-03 
*LOADS
*RC U395:C 3.449e-05
*END

*R_NET i_UART_DATA_TX\[14\] 4.680e-03
*DRIVER i_UART_DATA_TX\[14\]
*CELL NULL
*C2_R1_C1 2.340e-03 7.370e-03 2.340e-03 
*LOADS
*RC U393:C 3.449e-05
*END

*R_NET i_UART_DATA_TX\[13\] 4.680e-03
*DRIVER i_UART_DATA_TX\[13\]
*CELL NULL
*C2_R1_C1 2.340e-03 7.370e-03 2.340e-03 
*LOADS
*RC U391:C 3.449e-05
*END

*R_NET i_UART_DATA_TX\[12\] 4.680e-03
*DRIVER i_UART_DATA_TX\[12\]
*CELL NULL
*C2_R1_C1 2.340e-03 7.370e-03 2.340e-03 
*LOADS
*RC U389:C 3.449e-05
*END

*R_NET i_UART_DATA_TX\[11\] 4.680e-03
*DRIVER i_UART_DATA_TX\[11\]
*CELL NULL
*C2_R1_C1 2.340e-03 7.370e-03 2.340e-03 
*LOADS
*RC U387:C 3.449e-05
*END

*R_NET i_UART_DATA_TX\[10\] 4.680e-03
*DRIVER i_UART_DATA_TX\[10\]
*CELL NULL
*C2_R1_C1 2.340e-03 7.370e-03 2.340e-03 
*LOADS
*RC U385:C 3.449e-05
*END

*R_NET i_UART_DATA_TX\[9\] 4.680e-03
*DRIVER i_UART_DATA_TX\[9\]
*CELL NULL
*C2_R1_C1 2.340e-03 7.370e-03 2.340e-03 
*LOADS
*RC U383:C 3.449e-05
*END

*R_NET i_UART_DATA_TX\[8\] 4.680e-03
*DRIVER i_UART_DATA_TX\[8\]
*CELL NULL
*C2_R1_C1 2.340e-03 7.370e-03 2.340e-03 
*LOADS
*RC U381:C 3.449e-05
*END

*R_NET i_UART_DATA_TX\[7\] 4.590e-03
*DRIVER i_UART_DATA_TX\[7\]
*CELL NULL
*C2_R1_C1 2.295e-03 7.370e-03 2.295e-03 
*LOADS
*RC U167:A 3.383e-05
*END

*R_NET i_UART_DATA_TX\[6\] 4.590e-03
*DRIVER i_UART_DATA_TX\[6\]
*CELL NULL
*C2_R1_C1 2.295e-03 7.370e-03 2.295e-03 
*LOADS
*RC U168:A 3.383e-05
*END

*R_NET i_UART_DATA_TX\[5\] 4.590e-03
*DRIVER i_UART_DATA_TX\[5\]
*CELL NULL
*C2_R1_C1 2.295e-03 7.370e-03 2.295e-03 
*LOADS
*RC U169:A 3.383e-05
*END

*R_NET i_UART_DATA_TX\[4\] 4.590e-03
*DRIVER i_UART_DATA_TX\[4\]
*CELL NULL
*C2_R1_C1 2.295e-03 7.370e-03 2.295e-03 
*LOADS
*RC U170:A 3.383e-05
*END

*R_NET i_UART_DATA_TX\[3\] 4.590e-03
*DRIVER i_UART_DATA_TX\[3\]
*CELL NULL
*C2_R1_C1 2.295e-03 7.370e-03 2.295e-03 
*LOADS
*RC U171:A 3.383e-05
*END

*R_NET i_UART_DATA_TX\[2\] 4.590e-03
*DRIVER i_UART_DATA_TX\[2\]
*CELL NULL
*C2_R1_C1 2.295e-03 7.370e-03 2.295e-03 
*LOADS
*RC U172:A 3.383e-05
*END

*R_NET i_UART_DATA_TX\[1\] 4.590e-03
*DRIVER i_UART_DATA_TX\[1\]
*CELL NULL
*C2_R1_C1 2.295e-03 7.370e-03 2.295e-03 
*LOADS
*RC U173:A 3.383e-05
*END

*R_NET i_UART_DATA_TX\[0\] 4.590e-03
*DRIVER i_UART_DATA_TX\[0\]
*CELL NULL
*C2_R1_C1 2.295e-03 7.370e-03 2.295e-03 
*LOADS
*RC U174:A 3.383e-05
*END

*R_NET i_UART_DATA_TX_VALID 2.071e-02
*DRIVER i_UART_DATA_TX_VALID
*CELL NULL
*C2_R1_C1 1.035e-02 1.094e-02 1.035e-02 
*LOADS
*RC U347:A 2.266e-04
*RC U346:A 2.266e-04
*RC U623:A 2.266e-04
*RC U625:A 2.266e-04
*END

*R_NET o_UART_DATA_TX_READY 1.777e-02
*DRIVER o_UART_DATA_TX_READY_reg:Q
*CELL fd4qd1_hd
*C2_R1_C1 8.885e-03 9.100e-03 8.885e-03 
*LOADS
*RC U496:D0 1.617e-04
*RC o_UART_DATA_TX_READY 1.617e-04
*END

*R_NET o_UART_DATA_RX\[15\] 1.777e-02
*DRIVER o_UART_DATA_RX_reg_15_:Q
*CELL fd4qd1_hd
*C2_R1_C1 8.885e-03 9.100e-03 8.885e-03 
*LOADS
*RC U495:D0 1.617e-04
*RC o_UART_DATA_RX\[15\] 1.617e-04
*END

*R_NET o_UART_DATA_RX\[14\] 1.777e-02
*DRIVER o_UART_DATA_RX_reg_14_:Q
*CELL fd4qd1_hd
*C2_R1_C1 8.885e-03 9.100e-03 8.885e-03 
*LOADS
*RC U494:D0 1.617e-04
*RC o_UART_DATA_RX\[14\] 1.617e-04
*END

*R_NET o_UART_DATA_RX\[13\] 1.777e-02
*DRIVER o_UART_DATA_RX_reg_13_:Q
*CELL fd4qd1_hd
*C2_R1_C1 8.885e-03 9.100e-03 8.885e-03 
*LOADS
*RC U493:D0 1.617e-04
*RC o_UART_DATA_RX\[13\] 1.617e-04
*END

*R_NET o_UART_DATA_RX\[12\] 1.777e-02
*DRIVER o_UART_DATA_RX_reg_12_:Q
*CELL fd4qd1_hd
*C2_R1_C1 8.885e-03 9.100e-03 8.885e-03 
*LOADS
*RC U492:D0 1.617e-04
*RC o_UART_DATA_RX\[12\] 1.617e-04
*END

*R_NET o_UART_DATA_RX\[11\] 1.777e-02
*DRIVER o_UART_DATA_RX_reg_11_:Q
*CELL fd4qd1_hd
*C2_R1_C1 8.885e-03 9.100e-03 8.885e-03 
*LOADS
*RC U491:D0 1.617e-04
*RC o_UART_DATA_RX\[11\] 1.617e-04
*END

*R_NET o_UART_DATA_RX\[10\] 1.777e-02
*DRIVER o_UART_DATA_RX_reg_10_:Q
*CELL fd4qd1_hd
*C2_R1_C1 8.885e-03 9.100e-03 8.885e-03 
*LOADS
*RC U490:D0 1.617e-04
*RC o_UART_DATA_RX\[10\] 1.617e-04
*END

*R_NET o_UART_DATA_RX\[9\] 1.777e-02
*DRIVER o_UART_DATA_RX_reg_9_:Q
*CELL fd4qd1_hd
*C2_R1_C1 8.885e-03 9.100e-03 8.885e-03 
*LOADS
*RC U489:D0 1.617e-04
*RC o_UART_DATA_RX\[9\] 1.617e-04
*END

*R_NET o_UART_DATA_RX\[8\] 1.777e-02
*DRIVER o_UART_DATA_RX_reg_8_:Q
*CELL fd4qd1_hd
*C2_R1_C1 8.885e-03 9.100e-03 8.885e-03 
*LOADS
*RC U488:D0 1.617e-04
*RC o_UART_DATA_RX\[8\] 1.617e-04
*END

*R_NET o_UART_DATA_RX\[7\] 1.777e-02
*DRIVER o_UART_DATA_RX_reg_7_:Q
*CELL fd4qd1_hd
*C2_R1_C1 8.885e-03 9.100e-03 8.885e-03 
*LOADS
*RC U512:D0 1.617e-04
*RC o_UART_DATA_RX\[7\] 1.617e-04
*END

*R_NET o_UART_DATA_RX\[6\] 1.777e-02
*DRIVER o_UART_DATA_RX_reg_6_:Q
*CELL fd4qd1_hd
*C2_R1_C1 8.885e-03 9.100e-03 8.885e-03 
*LOADS
*RC U511:D0 1.617e-04
*RC o_UART_DATA_RX\[6\] 1.617e-04
*END

*R_NET o_UART_DATA_RX\[5\] 1.777e-02
*DRIVER o_UART_DATA_RX_reg_5_:Q
*CELL fd4qd1_hd
*C2_R1_C1 8.885e-03 9.100e-03 8.885e-03 
*LOADS
*RC U510:D0 1.617e-04
*RC o_UART_DATA_RX\[5\] 1.617e-04
*END

*R_NET o_UART_DATA_RX\[4\] 1.777e-02
*DRIVER o_UART_DATA_RX_reg_4_:Q
*CELL fd4qd1_hd
*C2_R1_C1 8.885e-03 9.100e-03 8.885e-03 
*LOADS
*RC U509:D0 1.617e-04
*RC o_UART_DATA_RX\[4\] 1.617e-04
*END

*R_NET o_UART_DATA_RX\[3\] 1.777e-02
*DRIVER o_UART_DATA_RX_reg_3_:Q
*CELL fd4qd1_hd
*C2_R1_C1 8.885e-03 9.100e-03 8.885e-03 
*LOADS
*RC U508:D0 1.617e-04
*RC o_UART_DATA_RX\[3\] 1.617e-04
*END

*R_NET o_UART_DATA_RX\[2\] 1.777e-02
*DRIVER o_UART_DATA_RX_reg_2_:Q
*CELL fd4qd1_hd
*C2_R1_C1 8.885e-03 9.100e-03 8.885e-03 
*LOADS
*RC U507:D0 1.617e-04
*RC o_UART_DATA_RX\[2\] 1.617e-04
*END

*R_NET o_UART_DATA_RX\[1\] 1.777e-02
*DRIVER o_UART_DATA_RX_reg_1_:Q
*CELL fd4qd1_hd
*C2_R1_C1 8.885e-03 9.100e-03 8.885e-03 
*LOADS
*RC U506:D0 1.617e-04
*RC o_UART_DATA_RX\[1\] 1.617e-04
*END

*R_NET o_UART_DATA_RX\[0\] 1.777e-02
*DRIVER o_UART_DATA_RX_reg_0_:Q
*CELL fd4qd1_hd
*C2_R1_C1 8.885e-03 9.100e-03 8.885e-03 
*LOADS
*RC U505:D0 1.617e-04
*RC o_UART_DATA_RX\[0\] 1.617e-04
*END

*R_NET o_UART_DATA_RX_VALID 1.777e-02
*DRIVER o_UART_DATA_RX_VALID_reg:Q
*CELL fd4qd1_hd
*C2_R1_C1 8.885e-03 9.100e-03 8.885e-03 
*LOADS
*RC U499:D0 1.617e-04
*RC o_UART_DATA_RX_VALID 1.617e-04
*END

*R_NET i_CORE_BUSY 2.715e-02
*DRIVER i_CORE_BUSY
*CELL NULL
*C2_R1_C1 1.358e-02 1.549e-02 1.358e-02 
*LOADS
*RC U302:A 4.206e-04
*RC U515:B 4.206e-04
*RC U176:B 4.206e-04
*RC U190:B 4.206e-04
*RC U195:A 4.206e-04
*END

*R_NET i_UART_RXD 4.620e-03
*DRIVER i_UART_RXD
*CELL NULL
*C2_R1_C1 2.310e-03 7.370e-03 2.310e-03 
*LOADS
*RC uart_rx/r_Rx_Data_R_reg:D 3.405e-05
*END

*R_NET o_UART_TXD 1.777e-02
*DRIVER uart_tx/o_Tx_Serial_reg:Q
*CELL fd3qd1_hd
*C2_R1_C1 8.885e-03 9.100e-03 8.885e-03 
*LOADS
*RC uart_tx/U104:D0 1.617e-04
*RC o_UART_TXD 1.617e-04
*END

*R_NET i_CLK 7.886e-01
*DRIVER i_CLK
*CELL NULL
*C2_R1_C1 3.943e-01 0.000e+00 3.943e-01 
*LOADS
*RC uart_rx/r_Clock_Count_reg_0_:CK 0.000e+00
*RC uart_rx/r_SM_Main_reg_0_:CK 0.000e+00
*RC uart_rx/r_Rx_Data_R_reg:CK 0.000e+00
*RC uart_rx/r_Rx_Data_reg:CK 0.000e+00
*RC uart_rx/r_Clock_Count_reg_6_:CK 0.000e+00
*RC uart_rx/r_Clock_Count_reg_5_:CK 0.000e+00
*RC uart_rx/r_Clock_Count_reg_3_:CK 0.000e+00
*RC uart_rx/r_Clock_Count_reg_2_:CK 0.000e+00
*RC uart_rx/r_Clock_Count_reg_1_:CK 0.000e+00
*RC uart_rx/r_Clock_Count_reg_4_:CK 0.000e+00
*RC uart_rx/r_Clock_Count_reg_7_:CK 0.000e+00
*RC uart_rx/r_Rx_Byte_reg_0_:CK 0.000e+00
*RC uart_rx/r_Rx_Byte_reg_1_:CK 0.000e+00
*RC uart_rx/r_Rx_Byte_reg_2_:CK 0.000e+00
*RC uart_rx/r_Rx_Byte_reg_3_:CK 0.000e+00
*RC uart_rx/r_Rx_Byte_reg_4_:CK 0.000e+00
*RC uart_rx/r_Rx_Byte_reg_5_:CK 0.000e+00
*RC uart_rx/r_Rx_Byte_reg_6_:CK 0.000e+00
*RC uart_rx/r_Rx_Byte_reg_7_:CK 0.000e+00
*RC uart_rx/r_SM_Main_reg_1_:CK 0.000e+00
*RC uart_rx/r_Rx_DV_reg:CK 0.000e+00
*RC uart_rx/r_SM_Main_reg_2_:CK 0.000e+00
*RC uart_rx/r_Bit_Index_reg_2_:CK 0.000e+00
*RC uart_rx/r_Bit_Index_reg_1_:CK 0.000e+00
*RC uart_rx/r_Bit_Index_reg_0_:CK 0.000e+00
*RC r_uart_data_tx_shift_reg_0_:CK 0.000e+00
*RC r_uart_data_tx_shift_reg_1_:CK 0.000e+00
*RC r_uart_data_tx_shift_reg_2_:CK 0.000e+00
*RC r_uart_data_tx_shift_reg_3_:CK 0.000e+00
*RC r_uart_data_tx_shift_reg_4_:CK 0.000e+00
*RC r_uart_data_tx_shift_reg_5_:CK 0.000e+00
*RC r_uart_data_tx_shift_reg_6_:CK 0.000e+00
*RC r_uart_data_tx_shift_reg_7_:CK 0.000e+00
*RC r_uart_data_tx_shift_reg_8_:CK 0.000e+00
*RC r_uart_data_tx_shift_reg_9_:CK 0.000e+00
*RC r_uart_data_tx_shift_reg_10_:CK 0.000e+00
*RC r_uart_data_tx_shift_reg_11_:CK 0.000e+00
*RC r_uart_data_tx_shift_reg_12_:CK 0.000e+00
*RC r_uart_data_tx_shift_reg_13_:CK 0.000e+00
*RC r_uart_data_tx_shift_reg_14_:CK 0.000e+00
*RC r_uart_data_tx_shift_reg_15_:CK 0.000e+00
*RC r_uart_data_tx_shift_reg_16_:CK 0.000e+00
*RC r_uart_data_tx_shift_reg_17_:CK 0.000e+00
*RC r_uart_data_tx_shift_reg_18_:CK 0.000e+00
*RC r_uart_data_tx_shift_reg_19_:CK 0.000e+00
*RC r_uart_data_tx_shift_reg_20_:CK 0.000e+00
*RC r_uart_data_tx_shift_reg_21_:CK 0.000e+00
*RC r_uart_data_tx_shift_reg_22_:CK 0.000e+00
*RC r_uart_data_tx_shift_reg_23_:CK 0.000e+00
*RC r_uart_data_tx_shift_reg_24_:CK 0.000e+00
*RC r_uart_data_tx_shift_reg_25_:CK 0.000e+00
*RC r_uart_data_tx_shift_reg_26_:CK 0.000e+00
*RC r_uart_data_tx_shift_reg_27_:CK 0.000e+00
*RC r_uart_data_tx_shift_reg_28_:CK 0.000e+00
*RC r_uart_data_tx_shift_reg_29_:CK 0.000e+00
*RC r_uart_data_tx_shift_reg_30_:CK 0.000e+00
*RC r_uart_data_tx_shift_reg_31_:CK 0.000e+00
*RC r_uart_data_tx_shift_reg_32_:CK 0.000e+00
*RC r_uart_data_tx_shift_reg_33_:CK 0.000e+00
*RC r_uart_data_tx_shift_reg_34_:CK 0.000e+00
*RC r_uart_data_tx_shift_reg_35_:CK 0.000e+00
*RC r_uart_data_tx_shift_reg_36_:CK 0.000e+00
*RC r_uart_data_tx_shift_reg_37_:CK 0.000e+00
*RC r_uart_data_tx_shift_reg_38_:CK 0.000e+00
*RC r_uart_data_tx_shift_reg_39_:CK 0.000e+00
*RC r_uart_data_tx_shift_reg_40_:CK 0.000e+00
*RC r_uart_data_tx_shift_reg_41_:CK 0.000e+00
*RC r_uart_data_tx_shift_reg_42_:CK 0.000e+00
*RC r_uart_data_tx_shift_reg_43_:CK 0.000e+00
*RC r_uart_data_tx_shift_reg_44_:CK 0.000e+00
*RC r_uart_data_tx_shift_reg_45_:CK 0.000e+00
*RC r_uart_data_tx_shift_reg_46_:CK 0.000e+00
*RC r_uart_data_tx_shift_reg_47_:CK 0.000e+00
*RC r_uart_data_tx_shift_reg_48_:CK 0.000e+00
*RC r_uart_data_tx_shift_reg_49_:CK 0.000e+00
*RC r_uart_data_tx_shift_reg_50_:CK 0.000e+00
*RC r_uart_data_tx_shift_reg_51_:CK 0.000e+00
*RC r_uart_data_tx_shift_reg_52_:CK 0.000e+00
*RC r_uart_data_tx_shift_reg_53_:CK 0.000e+00
*RC r_uart_data_tx_shift_reg_54_:CK 0.000e+00
*RC r_uart_data_tx_shift_reg_55_:CK 0.000e+00
*RC r_pstate_reg_1_:CK 0.000e+00
*RC r_pstate_reg_2_:CK 0.000e+00
*RC r_uart_data_tx_reg_0_:CK 0.000e+00
*RC r_uart_data_tx_reg_1_:CK 0.000e+00
*RC r_uart_data_tx_reg_2_:CK 0.000e+00
*RC r_uart_data_tx_reg_3_:CK 0.000e+00
*RC r_uart_data_tx_reg_4_:CK 0.000e+00
*RC r_uart_data_tx_reg_5_:CK 0.000e+00
*RC r_uart_data_tx_reg_6_:CK 0.000e+00
*RC r_uart_data_tx_reg_7_:CK 0.000e+00
*RC r_uart_data_tx_valid_reg:CK 0.000e+00
*RC o_UART_DATA_RX_reg_8_:CK 0.000e+00
*RC o_UART_DATA_RX_reg_9_:CK 0.000e+00
*RC o_UART_DATA_RX_reg_10_:CK 0.000e+00
*RC o_UART_DATA_RX_reg_11_:CK 0.000e+00
*RC o_UART_DATA_RX_reg_12_:CK 0.000e+00
*RC o_UART_DATA_RX_reg_13_:CK 0.000e+00
*RC o_UART_DATA_RX_reg_14_:CK 0.000e+00
*RC o_UART_DATA_RX_reg_15_:CK 0.000e+00
*RC o_UART_DATA_TX_READY_reg:CK 0.000e+00
*RC r_lstate_reg_0_:CK 0.000e+00
*RC r_lstate_reg_1_:CK 0.000e+00
*RC o_UART_DATA_RX_VALID_reg:CK 0.000e+00
*RC r_data_counter_reg_0_:CK 0.000e+00
*RC r_data_counter_reg_2_:CK 0.000e+00
*RC r_data_counter_reg_1_:CK 0.000e+00
*RC o_UART_DATA_RX_reg_0_:CK 0.000e+00
*RC o_UART_DATA_RX_reg_1_:CK 0.000e+00
*RC o_UART_DATA_RX_reg_2_:CK 0.000e+00
*RC o_UART_DATA_RX_reg_3_:CK 0.000e+00
*RC o_UART_DATA_RX_reg_4_:CK 0.000e+00
*RC o_UART_DATA_RX_reg_5_:CK 0.000e+00
*RC o_UART_DATA_RX_reg_6_:CK 0.000e+00
*RC o_UART_DATA_RX_reg_7_:CK 0.000e+00
*RC r_pstate_reg_0_:CK 0.000e+00
*RC uart_tx/r_Bit_Index_reg_2_:CK 0.000e+00
*RC uart_tx/r_Clock_Count_reg_7_:CK 0.000e+00
*RC uart_tx/r_Clock_Count_reg_0_:CK 0.000e+00
*RC uart_tx/r_Clock_Count_reg_1_:CK 0.000e+00
*RC uart_tx/r_Clock_Count_reg_2_:CK 0.000e+00
*RC uart_tx/r_Clock_Count_reg_3_:CK 0.000e+00
*RC uart_tx/r_Clock_Count_reg_4_:CK 0.000e+00
*RC uart_tx/r_Clock_Count_reg_5_:CK 0.000e+00
*RC uart_tx/r_Clock_Count_reg_6_:CK 0.000e+00
*RC uart_tx/r_Tx_Done_reg:CK 0.000e+00
*RC uart_tx/r_Tx_Data_reg_0_:CK 0.000e+00
*RC uart_tx/r_Tx_Data_reg_1_:CK 0.000e+00
*RC uart_tx/r_Tx_Data_reg_2_:CK 0.000e+00
*RC uart_tx/r_Tx_Data_reg_3_:CK 0.000e+00
*RC uart_tx/r_Tx_Data_reg_4_:CK 0.000e+00
*RC uart_tx/r_Tx_Data_reg_5_:CK 0.000e+00
*RC uart_tx/r_Tx_Data_reg_6_:CK 0.000e+00
*RC uart_tx/r_Tx_Data_reg_7_:CK 0.000e+00
*RC uart_tx/r_SM_Main_reg_1_:CK 0.000e+00
*RC uart_tx/r_SM_Main_reg_2_:CK 0.000e+00
*RC uart_tx/r_SM_Main_reg_0_:CK 0.000e+00
*RC uart_tx/r_Bit_Index_reg_0_:CK 0.000e+00
*RC uart_tx/o_Tx_Serial_reg:CK 0.000e+00
*RC uart_tx/r_Bit_Index_reg_1_:CK 0.000e+00
*END

*R_NET r_uart_data_tx_valid 9.010e-03
*DRIVER r_uart_data_tx_valid_reg:Q
*CELL fd4qd1_hd
*C2_R1_C1 4.505e-03 9.100e-03 4.505e-03 
*LOADS
*RC U487:D0 8.199e-05
*RC uart_tx/U33:B 8.199e-05
*END

*R_NET r_uart_data_tx\[7\] 9.360e-03
*DRIVER r_uart_data_tx_reg_7_:Q
*CELL fd4qd1_hd
*C2_R1_C1 4.680e-03 9.100e-03 4.680e-03 
*LOADS
*RC U486:D0 8.518e-05
*RC uart_tx/U101:D1 8.518e-05
*END

*R_NET r_uart_data_tx\[6\] 9.360e-03
*DRIVER r_uart_data_tx_reg_6_:Q
*CELL fd4qd1_hd
*C2_R1_C1 4.680e-03 9.100e-03 4.680e-03 
*LOADS
*RC U485:D0 8.518e-05
*RC uart_tx/U100:D1 8.518e-05
*END

*R_NET r_uart_data_tx\[5\] 9.360e-03
*DRIVER r_uart_data_tx_reg_5_:Q
*CELL fd4qd1_hd
*C2_R1_C1 4.680e-03 9.100e-03 4.680e-03 
*LOADS
*RC U484:D0 8.518e-05
*RC uart_tx/U99:D1 8.518e-05
*END

*R_NET r_uart_data_tx\[4\] 9.360e-03
*DRIVER r_uart_data_tx_reg_4_:Q
*CELL fd4qd1_hd
*C2_R1_C1 4.680e-03 9.100e-03 4.680e-03 
*LOADS
*RC U483:D0 8.518e-05
*RC uart_tx/U98:D1 8.518e-05
*END

*R_NET r_uart_data_tx\[3\] 9.360e-03
*DRIVER r_uart_data_tx_reg_3_:Q
*CELL fd4qd1_hd
*C2_R1_C1 4.680e-03 9.100e-03 4.680e-03 
*LOADS
*RC U482:D0 8.518e-05
*RC uart_tx/U97:D1 8.518e-05
*END

*R_NET r_uart_data_tx\[2\] 9.360e-03
*DRIVER r_uart_data_tx_reg_2_:Q
*CELL fd4qd1_hd
*C2_R1_C1 4.680e-03 9.100e-03 4.680e-03 
*LOADS
*RC U481:D0 8.518e-05
*RC uart_tx/U96:D1 8.518e-05
*END

*R_NET r_uart_data_tx\[1\] 9.360e-03
*DRIVER r_uart_data_tx_reg_1_:Q
*CELL fd4qd1_hd
*C2_R1_C1 4.680e-03 9.100e-03 4.680e-03 
*LOADS
*RC U480:D0 8.518e-05
*RC uart_tx/U95:D1 8.518e-05
*END

*R_NET r_uart_data_tx\[0\] 9.360e-03
*DRIVER r_uart_data_tx_reg_0_:Q
*CELL fd4qd1_hd
*C2_R1_C1 4.680e-03 9.100e-03 4.680e-03 
*LOADS
*RC U479:D0 8.518e-05
*RC uart_tx/U94:D1 8.518e-05
*END

*R_NET w_uart_data_tx_done 2.653e-02
*DRIVER uart_tx/r_Tx_Done_reg:Q
*CELL fd2d1_hd
*C2_R1_C1 1.327e-02 1.549e-02 1.327e-02 
*LOADS
*RC uart_tx/U92:D0 4.109e-04
*RC U344:B 4.109e-04
*RC U354:B 4.109e-04
*RC U113:B 4.109e-04
*RC U624:A 4.109e-04
*END

*R_NET w_uart_data_rx_valid 4.410e-02
*DRIVER uart_rx/r_Rx_DV_reg:Q
*CELL fd2d1_hd
*C2_R1_C1 2.205e-02 2.066e-02 2.205e-02 
*LOADS
*RC uart_rx/U134:D0 9.111e-04
*RC U518:A 9.111e-04
*RC U517:A 9.111e-04
*RC U516:B 9.111e-04
*RC U515:A 9.111e-04
*RC U190:D 9.111e-04
*RC U623:B 9.111e-04
*RC U628:A 9.111e-04
*END

*R_NET r_pstate\[2\] 3.023e-02
*DRIVER r_pstate_reg_2_:Q
*CELL fd4qd1_hd
*C2_R1_C1 1.512e-02 1.674e-02 1.512e-02 
*LOADS
*RC U343:A 5.061e-04
*RC U348:A 5.061e-04
*RC U366:A 5.061e-04
*RC U477:D0 5.061e-04
*RC U618:A 5.061e-04
*RC U10:C 5.061e-04
*END

*R_NET r_pstate\[1\] 3.465e-02
*DRIVER r_pstate_reg_1_:Q
*CELL fd4qd1_hd
*C2_R1_C1 1.733e-02 1.715e-02 1.733e-02 
*LOADS
*RC U314:A 5.942e-04
*RC U343:B 5.942e-04
*RC U366:B 5.942e-04
*RC U368:B 5.942e-04
*RC U476:D0 5.942e-04
*RC U8:A 5.942e-04
*RC U10:A 5.942e-04
*END

*R_NET r_pstate\[0\] 2.601e-02
*DRIVER r_pstate_reg_0_:Q
*CELL fd4qd1_hd
*C2_R1_C1 1.300e-02 1.549e-02 1.300e-02 
*LOADS
*RC U513:D0 4.029e-04
*RC U609:A 4.029e-04
*RC U616:B 4.029e-04
*RC U8:B 4.029e-04
*RC U10:B 4.029e-04
*END

*R_NET r_uart_data_tx_shift\[55\] 2.471e-02
*DRIVER r_uart_data_tx_shift_reg_55_:Q
*CELL fd4qd1_hd
*C2_R1_C1 1.235e-02 1.549e-02 1.235e-02 
*LOADS
*RC U304:B 3.828e-04
*RC U308:B 3.828e-04
*RC U311:A 3.828e-04
*RC U474:D0 3.828e-04
*RC U178:A 3.828e-04
*END

*R_NET r_uart_data_tx_shift\[54\] 2.033e-02
*DRIVER r_uart_data_tx_shift_reg_54_:Q
*CELL fd4qd1_hd
*C2_R1_C1 1.017e-02 1.094e-02 1.017e-02 
*LOADS
*RC U293:A 2.224e-04
*RC U310:A 2.224e-04
*RC U472:D0 2.224e-04
*RC U179:A 2.224e-04
*END

*R_NET r_uart_data_tx_shift\[53\] 1.452e-02
*DRIVER r_uart_data_tx_shift_reg_53_:Q
*CELL fd4qd1_hd
*C2_R1_C1 7.260e-03 9.460e-03 7.260e-03 
*LOADS
*RC U312:A 1.374e-04
*RC U470:D0 1.374e-04
*RC U180:A 1.374e-04
*END

*R_NET r_uart_data_tx_shift\[52\] 2.405e-02
*DRIVER r_uart_data_tx_shift_reg_52_:Q
*CELL fd4qd1_hd
*C2_R1_C1 1.203e-02 1.549e-02 1.203e-02 
*LOADS
*RC U306:A 3.725e-04
*RC U336:A 3.725e-04
*RC U351:A 3.725e-04
*RC U468:D0 3.725e-04
*RC U181:A 3.725e-04
*END

*R_NET r_uart_data_tx_shift\[51\] 2.033e-02
*DRIVER r_uart_data_tx_shift_reg_51_:Q
*CELL fd4qd1_hd
*C2_R1_C1 1.017e-02 1.094e-02 1.017e-02 
*LOADS
*RC U313:A 2.224e-04
*RC U335:A 2.224e-04
*RC U466:D0 2.224e-04
*RC U182:A 2.224e-04
*END

*R_NET r_uart_data_tx_shift\[50\] 2.429e-02
*DRIVER r_uart_data_tx_shift_reg_50_:Q
*CELL fd4qd1_hd
*C2_R1_C1 1.214e-02 1.549e-02 1.214e-02 
*LOADS
*RC U334:A 3.763e-04
*RC U340:A 3.763e-04
*RC U349:A 3.763e-04
*RC U464:D0 3.763e-04
*RC U183:A 3.763e-04
*END

*R_NET r_uart_data_tx_shift\[49\] 2.429e-02
*DRIVER r_uart_data_tx_shift_reg_49_:Q
*CELL fd4qd1_hd
*C2_R1_C1 1.214e-02 1.549e-02 1.214e-02 
*LOADS
*RC U333:A 3.763e-04
*RC U338:A 3.763e-04
*RC U353:A 3.763e-04
*RC U462:D0 3.763e-04
*RC U184:A 3.763e-04
*END

*R_NET r_uart_data_tx_shift\[48\] 2.087e-02
*DRIVER r_uart_data_tx_shift_reg_48_:Q
*CELL fd4qd1_hd
*C2_R1_C1 1.044e-02 1.094e-02 1.044e-02 
*LOADS
*RC U337:A 2.283e-04
*RC U460:D0 2.283e-04
*RC U629:A 2.283e-04
*RC U185:A 2.283e-04
*END

*R_NET r_uart_data_tx_shift\[47\] 9.000e-03
*DRIVER r_uart_data_tx_shift_reg_47_:Q
*CELL fd4qd1_hd
*C2_R1_C1 4.500e-03 9.100e-03 4.500e-03 
*LOADS
*RC U458:D0 8.190e-05
*RC U475:A 8.190e-05
*END

*R_NET r_uart_data_tx_shift\[46\] 9.000e-03
*DRIVER r_uart_data_tx_shift_reg_46_:Q
*CELL fd4qd1_hd
*C2_R1_C1 4.500e-03 9.100e-03 4.500e-03 
*LOADS
*RC U456:D0 8.190e-05
*RC U473:A 8.190e-05
*END

*R_NET r_uart_data_tx_shift\[45\] 9.000e-03
*DRIVER r_uart_data_tx_shift_reg_45_:Q
*CELL fd4qd1_hd
*C2_R1_C1 4.500e-03 9.100e-03 4.500e-03 
*LOADS
*RC U454:D0 8.190e-05
*RC U471:A 8.190e-05
*END

*R_NET r_uart_data_tx_shift\[44\] 9.000e-03
*DRIVER r_uart_data_tx_shift_reg_44_:Q
*CELL fd4qd1_hd
*C2_R1_C1 4.500e-03 9.100e-03 4.500e-03 
*LOADS
*RC U452:D0 8.190e-05
*RC U469:A 8.190e-05
*END

*R_NET r_uart_data_tx_shift\[43\] 9.000e-03
*DRIVER r_uart_data_tx_shift_reg_43_:Q
*CELL fd4qd1_hd
*C2_R1_C1 4.500e-03 9.100e-03 4.500e-03 
*LOADS
*RC U450:D0 8.190e-05