*SPEF "IEEE 1481-1999"
*DESIGN "uart_controller"
*DATE "Wed Jun 17 13:04:31 2020"
*VENDOR "SYNOPSYS INC"
*PROGRAM "Synopsys Design Compiler cmos"
*VERSION "F-2011.09-SP5-3"
*DESIGN_FLOW "SYNTHESIS"
*DIVIDER /
*DELIMITER :
*BUS_DELIMITER []
*T_UNIT 1.0 NS
*C_UNIT 1.0 PF
*R_UNIT 1.0 KOHM
*L_UNIT 1.0 HENRY

*PORTS

i_UART_DATA_TX\[55\] I *L 0.000e+00 *S 0.000e+00 0.000e+00 
i_UART_DATA_TX\[54\] I *L 0.000e+00 *S 0.000e+00 0.000e+00 
i_UART_DATA_TX\[53\] I *L 0.000e+00 *S 0.000e+00 0.000e+00 
i_UART_DATA_TX\[52\] I *L 0.000e+00 *S 0.000e+00 0.000e+00 
i_UART_DATA_TX\[51\] I *L 0.000e+00 *S 0.000e+00 0.000e+00 
i_UART_DATA_TX\[50\] I *L 0.000e+00 *S 0.000e+00 0.000e+00 
i_UART_DATA_TX\[49\] I *L 0.000e+00 *S 0.000e+00 0.000e+00 
i_UART_DATA_TX\[48\] I *L 0.000e+00 *S 0.000e+00 0.000e+00 
i_UART_DATA_TX\[47\] I *L 0.000e+00 *S 0.000e+00 0.000e+00 
i_UART_DATA_TX\[46\] I *L 0.000e+00 *S 0.000e+00 0.000e+00 
i_UART_DATA_TX\[45\] I *L 0.000e+00 *S 0.000e+00 0.000e+00 
i_UART_DATA_TX\[44\] I *L 0.000e+00 *S 0.000e+00 0.000e+00 
i_UART_DATA_TX\[43\] I *L 0.000e+00 *S 0.000e+00 0.000e+00 
i_UART_DATA_TX\[42\] I *L 0.000e+00 *S 0.000e+00 0.000e+00 
i_UART_DATA_TX\[41\] I *L 0.000e+00 *S 0.000e+00 0.000e+00 
i_UART_DATA_TX\[40\] I *L 0.000e+00 *S 0.000e+00 0.000e+00 
i_UART_DATA_TX\[39\] I *L 0.000e+00 *S 0.000e+00 0.000e+00 
i_UART_DATA_TX\[38\] I *L 0.000e+00 *S 0.000e+00 0.000e+00 
i_UART_DATA_TX\[37\] I *L 0.000e+00 *S 0.000e+00 0.000e+00 
i_UART_DATA_TX\[36\] I *L 0.000e+00 *S 0.000e+00 0.000e+00 
i_UART_DATA_TX\[35\] I *L 0.000e+00 *S 0.000e+00 0.000e+00 
i_UART_DATA_TX\[34\] I *L 0.000e+00 *S 0.000e+00 0.000e+00 
i_UART_DATA_TX\[33\] I *L 0.000e+00 *S 0.000e+00 0.000e+00 
i_UART_DATA_TX\[32\] I *L 0.000e+00 *S 0.000e+00 0.000e+00 
i_UART_DATA_TX\[31\] I *L 0.000e+00 *S 0.000e+00 0.000e+00 
i_UART_DATA_TX\[30\] I *L 0.000e+00 *S 0.000e+00 0.000e+00 
i_UART_DATA_TX\[29\] I *L 0.000e+00 *S 0.000e+00 0.000e+00 
i_UART_DATA_TX\[28\] I *L 0.000e+00 *S 0.000e+00 0.000e+00 
i_UART_DATA_TX\[27\] I *L 0.000e+00 *S 0.000e+00 0.000e+00 
i_UART_DATA_TX\[26\] I *L 0.000e+00 *S 0.000e+00 0.000e+00 
i_UART_DATA_TX\[25\] I *L 0.000e+00 *S 0.000e+00 0.000e+00 
i_UART_DATA_TX\[24\] I *L 0.000e+00 *S 0.000e+00 0.000e+00 
i_UART_DATA_TX\[23\] I *L 0.000e+00 *S 0.000e+00 0.000e+00 
i_UART_DATA_TX\[22\] I *L 0.000e+00 *S 0.000e+00 0.000e+00 
i_UART_DATA_TX\[21\] I *L 0.000e+00 *S 0.000e+00 0.000e+00 
i_UART_DATA_TX\[20\] I *L 0.000e+00 *S 0.000e+00 0.000e+00 
i_UART_DATA_TX\[19\] I *L 0.000e+00 *S 0.000e+00 0.000e+00 
i_UART_DATA_TX\[18\] I *L 0.000e+00 *S 0.000e+00 0.000e+00 
i_UART_DATA_TX\[17\] I *L 0.000e+00 *S 0.000e+00 0.000e+00 
i_UART_DATA_TX\[16\] I *L 0.000e+00 *S 0.000e+00 0.000e+00 
i_UART_DATA_TX\[15\] I *L 0.000e+00 *S 0.000e+00 0.000e+00 
i_UART_DATA_TX\[14\] I *L 0.000e+00 *S 0.000e+00 0.000e+00 
i_UART_DATA_TX\[13\] I *L 0.000e+00 *S 0.000e+00 0.000e+00 
i_UART_DATA_TX\[12\] I *L 0.000e+00 *S 0.000e+00 0.000e+00 
i_UART_DATA_TX\[11\] I *L 0.000e+00 *S 0.000e+00 0.000e+00 
i_UART_DATA_TX\[10\] I *L 0.000e+00 *S 0.000e+00 0.000e+00 
i_UART_DATA_TX\[9\] I *L 0.000e+00 *S 0.000e+00 0.000e+00 
i_UART_DATA_TX\[8\] I *L 0.000e+00 *S 0.000e+00 0.000e+00 
i_UART_DATA_TX\[7\] I *L 0.000e+00 *S 0.000e+00 0.000e+00 
i_UART_DATA_TX\[6\] I *L 0.000e+00 *S 0.000e+00 0.000e+00 
i_UART_DATA_TX\[5\] I *L 0.000e+00 *S 0.000e+00 0.000e+00 
i_UART_DATA_TX\[4\] I *L 0.000e+00 *S 0.000e+00 0.000e+00 
i_UART_DATA_TX\[3\] I *L 0.000e+00 *S 0.000e+00 0.000e+00 
i_UART_DATA_TX\[2\] I *L 0.000e+00 *S 0.000e+00 0.000e+00 
i_UART_DATA_TX\[1\] I *L 0.000e+00 *S 0.000e+00 0.000e+00 
i_UART_DATA_TX\[0\] I *L 0.000e+00 *S 0.000e+00 0.000e+00 
i_UART_DATA_TX_VALID I *L 0.000e+00 *S 0.000e+00 0.000e+00 
o_UART_DATA_TX_READY O *L 1.035e-02 *S 1.605e-01 2.005e-01 
o_UART_DATA_RX\[15\] O *L 1.035e-02 *S 1.605e-01 2.005e-01 
o_UART_DATA_RX\[14\] O *L 1.035e-02 *S 1.605e-01 2.005e-01 
o_UART_DATA_RX\[13\] O *L 1.035e-02 *S 1.605e-01 2.005e-01 
o_UART_DATA_RX\[12\] O *L 1.035e-02 *S 1.605e-01 2.005e-01 
o_UART_DATA_RX\[11\] O *L 1.035e-02 *S 1.605e-01 2.005e-01 
o_UART_DATA_RX\[10\] O *L 1.035e-02 *S 1.605e-01 2.005e-01 
o_UART_DATA_RX\[9\] O *L 1.035e-02 *S 1.605e-01 2.005e-01 
o_UART_DATA_RX\[8\] O *L 1.035e-02 *S 1.605e-01 2.005e-01 
o_UART_DATA_RX\[7\] O *L 1.035e-02 *S 1.605e-01 2.005e-01 
o_UART_DATA_RX\[6\] O *L 1.035e-02 *S 1.605e-01 2.005e-01 
o_UART_DATA_RX\[5\] O *L 1.035e-02 *S 1.605e-01 2.005e-01 
o_UART_DATA_RX\[4\] O *L 1.035e-02 *S 1.605e-01 2.005e-01 
o_UART_DATA_RX\[3\] O *L 1.035e-02 *S 1.605e-01 2.005e-01 
o_UART_DATA_RX\[2\] O *L 1.035e-02 *S 1.605e-01 2.005e-01 
o_UART_DATA_RX\[1\] O *L 1.035e-02 *S 1.605e-01 2.005e-01 
o_UART_DATA_RX\[0\] O *L 1.035e-02 *S 1.605e-01 2.005e-01 
o_UART_DATA_RX_VALID O *L 1.035e-02 *S 1.605e-01 2.005e-01 
i_CORE_BUSY I *L 0.000e+00 *S 0.000e+00 0.000e+00 
i_UART_RXD I *L 0.000e+00 *S 0.000e+00 0.000e+00 
o_UART_TXD O *L 1.035e-02 *S 1.675e-01 1.273e-01 
i_CLK I *L 0.000e+00 *S 0.000e+00 0.000e+00 
i_RSTN I *L 0.000e+00 *S 0.000e+00 0.000e+00 

*R_NET i_UART_DATA_TX\[55\] 4.680e-03
*DRIVER i_UART_DATA_TX\[55\]
*CELL NULL
*C2_R1_C1 2.340e-03 7.370e-03 2.340e-03 
*LOADS
*RC U376:C 3.449e-05
*END

*R_NET i_UART_DATA_TX\[54\] 4.680e-03
*DRIVER i_UART_DATA_TX\[54\]
*CELL NULL
*C2_R1_C1 2.340e-03 7.370e-03 2.340e-03 
*LOADS
*RC U374:C 3.449e-05
*END

*R_NET i_UART_DATA_TX\[53\] 4.680e-03
*DRIVER i_UART_DATA_TX\[53\]
*CELL NULL
*C2_R1_C1 2.340e-03 7.370e-03 2.340e-03 
*LOADS
*RC U372:C 3.449e-05
*END

*R_NET i_UART_DATA_TX\[52\] 4.680e-03
*DRIVER i_UART_DATA_TX\[52\]
*CELL NULL
*C2_R1_C1 2.340e-03 7.370e-03 2.340e-03 
*LOADS
*RC U370:C 3.449e-05
*END

*R_NET i_UART_DATA_TX\[51\] 4.680e-03
*DRIVER i_UART_DATA_TX\[51\]
*CELL NULL
*C2_R1_C1 2.340e-03 7.370e-03 2.340e-03 
*LOADS
*RC U368:C 3.449e-05
*END

*R_NET i_UART_DATA_TX\[50\] 4.680e-03
*DRIVER i_UART_DATA_TX\[50\]
*CELL NULL
*C2_R1_C1 2.340e-03 7.370e-03 2.340e-03 
*LOADS
*RC U366:C 3.449e-05
*END

*R_NET i_UART_DATA_TX\[49\] 4.680e-03
*DRIVER i_UART_DATA_TX\[49\]
*CELL NULL
*C2_R1_C1 2.340e-03 7.370e-03 2.340e-03 
*LOADS
*RC U364:C 3.449e-05
*END

*R_NET i_UART_DATA_TX\[48\] 4.680e-03
*DRIVER i_UART_DATA_TX\[48\]
*CELL NULL
*C2_R1_C1 2.340e-03 7.370e-03 2.340e-03 
*LOADS
*RC U362:C 3.449e-05
*END

*R_NET i_UART_DATA_TX\[47\] 4.680e-03
*DRIVER i_UART_DATA_TX\[47\]
*CELL NULL
*C2_R1_C1 2.340e-03 7.370e-03 2.340e-03 
*LOADS
*RC U360:C 3.449e-05
*END

*R_NET i_UART_DATA_TX\[46\] 4.680e-03
*DRIVER i_UART_DATA_TX\[46\]
*CELL NULL
*C2_R1_C1 2.340e-03 7.370e-03 2.340e-03 
*LOADS
*RC U358:C 3.449e-05
*END

*R_NET i_UART_DATA_TX\[45\] 4.680e-03
*DRIVER i_UART_DATA_TX\[45\]
*CELL NULL
*C2_R1_C1 2.340e-03 7.370e-03 2.340e-03 
*LOADS
*RC U356:C 3.449e-05
*END

*R_NET i_UART_DATA_TX\[44\] 4.680e-03
*DRIVER i_UART_DATA_TX\[44\]
*CELL NULL
*C2_R1_C1 2.340e-03 7.370e-03 2.340e-03 
*LOADS
*RC U354:C 3.449e-05
*END

*R_NET i_UART_DATA_TX\[43\] 4.680e-03
*DRIVER i_UART_DATA_TX\[43\]
*CELL NULL
*C2_R1_C1 2.340e-03 7.370e-03 2.340e-03 
*LOADS
*RC U352:C 3.449e-05
*END

*R_NET i_UART_DATA_TX\[42\] 4.680e-03
*DRIVER i_UART_DATA_TX\[42\]
*CELL NULL
*C2_R1_C1 2.340e-03 7.370e-03 2.340e-03 
*LOADS
*RC U350:C 3.449e-05
*END

*R_NET i_UART_DATA_TX\[41\] 4.680e-03
*DRIVER i_UART_DATA_TX\[41\]
*CELL NULL
*C2_R1_C1 2.340e-03 7.370e-03 2.340e-03 
*LOADS
*RC U348:C 3.449e-05
*END

*R_NET i_UART_DATA_TX\[40\] 4.680e-03
*DRIVER i_UART_DATA_TX\[40\]
*CELL NULL
*C2_R1_C1 2.340e-03 7.370e-03 2.340e-03 
*LOADS
*RC U346:C 3.449e-05
*END

*R_NET i_UART_DATA_TX\[39\] 4.680e-03
*DRIVER i_UART_DATA_TX\[39\]
*CELL NULL
*C2_R1_C1 2.340e-03 7.370e-03 2.340e-03 
*LOADS
*RC U344:C 3.449e-05
*END

*R_NET i_UART_DATA_TX\[38\] 4.680e-03
*DRIVER i_UART_DATA_TX\[38\]
*CELL NULL
*C2_R1_C1 2.340e-03 7.370e-03 2.340e-03 
*LOADS
*RC U342:C 3.449e-05
*END

*R_NET i_UART_DATA_TX\[37\] 4.680e-03
*DRIVER i_UART_DATA_TX\[37\]
*CELL NULL
*C2_R1_C1 2.340e-03 7.370e-03 2.340e-03 
*LOADS
*RC U340:C 3.449e-05
*END

*R_NET i_UART_DATA_TX\[36\] 4.680e-03
*DRIVER i_UART_DATA_TX\[36\]
*CELL NULL
*C2_R1_C1 2.340e-03 7.370e-03 2.340e-03 
*LOADS
*RC U338:C 3.449e-05
*END

*R_NET i_UART_DATA_TX\[35\] 4.680e-03
*DRIVER i_UART_DATA_TX\[35\]
*CELL NULL
*C2_R1_C1 2.340e-03 7.370e-03 2.340e-03 
*LOADS
*RC U336:C 3.449e-05
*END

*R_NET i_UART_DATA_TX\[34\] 4.680e-03
*DRIVER i_UART_DATA_TX\[34\]
*CELL NULL
*C2_R1_C1 2.340e-03 7.370e-03 2.340e-03 
*LOADS
*RC U334:C 3.449e-05
*END

*R_NET i_UART_DATA_TX\[33\] 4.680e-03
*DRIVER i_UART_DATA_TX\[33\]
*CELL NULL
*C2_R1_C1 2.340e-03 7.370e-03 2.340e-03 
*LOADS
*RC U332:C 3.449e-05
*END

*R_NET i_UART_DATA_TX\[32\] 4.680e-03
*DRIVER i_UART_DATA_TX\[32\]
*CELL NULL
*C2_R1_C1 2.340e-03 7.370e-03 2.340e-03 
*LOADS
*RC U330:C 3.449e-05
*END

*R_NET i_UART_DATA_TX\[31\] 4.680e-03
*DRIVER i_UART_DATA_TX\[31\]
*CELL NULL
*C2_R1_C1 2.340e-03 7.370e-03 2.340e-03 
*LOADS
*RC U328:C 3.449e-05
*END

*R_NET i_UART_DATA_TX\[30\] 4.680e-03
*DRIVER i_UART_DATA_TX\[30\]
*CELL NULL
*C2_R1_C1 2.340e-03 7.370e-03 2.340e-03 
*LOADS
*RC U326:C 3.449e-05
*END

*R_NET i_UART_DATA_TX\[29\] 4.680e-03
*DRIVER i_UART_DATA_TX\[29\]
*CELL NULL
*C2_R1_C1 2.340e-03 7.370e-03 2.340e-03 
*LOADS
*RC U324:C 3.449e-05
*END

*R_NET i_UART_DATA_TX\[28\] 4.680e-03
*DRIVER i_UART_DATA_TX\[28\]
*CELL NULL
*C2_R1_C1 2.340e-03 7.370e-03 2.340e-03 
*LOADS
*RC U322:C 3.449e-05
*END

*R_NET i_UART_DATA_TX\[27\] 4.680e-03
*DRIVER i_UART_DATA_TX\[27\]
*CELL NULL
*C2_R1_C1 2.340e-03 7.370e-03 2.340e-03 
*LOADS
*RC U320:C 3.449e-05
*END

*R_NET i_UART_DATA_TX\[26\] 4.680e-03
*DRIVER i_UART_DATA_TX\[26\]
*CELL NULL
*C2_R1_C1 2.340e-03 7.370e-03 2.340e-03 
*LOADS
*RC U318:C 3.449e-05
*END

*R_NET i_UART_DATA_TX\[25\] 4.680e-03
*DRIVER i_UART_DATA_TX\[25\]
*CELL NULL
*C2_R1_C1 2.340e-03 7.370e-03 2.340e-03 
*LOADS
*RC U316:C 3.449e-05
*END

*R_NET i_UART_DATA_TX\[24\] 4.680e-03
*DRIVER i_UART_DATA_TX\[24\]
*CELL NULL
*C2_R1_C1 2.340e-03 7.370e-03 2.340e-03 
*LOADS
*RC U314:C 3.449e-05
*END

*R_NET i_UART_DATA_TX\[23\] 4.680e-03
*DRIVER i_UART_DATA_TX\[23\]
*CELL NULL
*C2_R1_C1 2.340e-03 7.370e-03 2.340e-03 
*LOADS
*RC U312:C 3.449e-05
*END

*R_NET i_UART_DATA_TX\[22\] 4.680e-03
*DRIVER i_UART_DATA_TX\[22\]
*CELL NULL
*C2_R1_C1 2.340e-03 7.370e-03 2.340e-03 
*LOADS
*RC U310:C 3.449e-05
*END

*R_NET i_UART_DATA_TX\[21\] 4.680e-03
*DRIVER i_UART_DATA_TX\[21\]
*CELL NULL
*C2_R1_C1 2.340e-03 7.370e-03 2.340e-03 
*LOADS
*RC U308:C 3.449e-05
*END

*R_NET i_UART_DATA_TX\[20\] 4.680e-03
*DRIVER i_UART_DATA_TX\[20\]
*CELL NULL
*C2_R1_C1 2.340e-03 7.370e-03 2.340e-03 
*LOADS
*RC U306:C 3.449e-05
*END

*R_NET i_UART_DATA_TX\[19\] 4.680e-03
*DRIVER i_UART_DATA_TX\[19\]
*CELL NULL
*C2_R1_C1 2.340e-03 7.370e-03 2.340e-03 
*LOADS
*RC U304:C 3.449e-05
*END

*R_NET i_UART_DATA_TX\[18\] 4.680e-03
*DRIVER i_UART_DATA_TX\[18\]
*CELL NULL
*C2_R1_C1 2.340e-03 7.370e-03 2.340e-03 
*LOADS
*RC U302:C 3.449e-05
*END

*R_NET i_UART_DATA_TX\[17\] 4.680e-03
*DRIVER i_UART_DATA_TX\[17\]
*CELL NULL
*C2_R1_C1 2.340e-03 7.370e-03 2.340e-03 
*LOADS
*RC U300:C 3.449e-05
*END

*R_NET i_UART_DATA_TX\[16\] 4.680e-03
*DRIVER i_UART_DATA_TX\[16\]
*CELL NULL
*C2_R1_C1 2.340e-03 7.370e-03 2.340e-03 
*LOADS
*RC U298:C 3.449e-05
*END

*R_NET i_UART_DATA_TX\[15\] 4.680e-03
*DRIVER i_UART_DATA_TX\[15\]
*CELL NULL
*C2_R1_C1 2.340e-03 7.370e-03 2.340e-03 
*LOADS
*RC U296:C 3.449e-05
*END

*R_NET i_UART_DATA_TX\[14\] 4.680e-03
*DRIVER i_UART_DATA_TX\[14\]
*CELL NULL
*C2_R1_C1 2.340e-03 7.370e-03 2.340e-03 
*LOADS
*RC U294:C 3.449e-05
*END

*R_NET i_UART_DATA_TX\[13\] 4.680e-03
*DRIVER i_UART_DATA_TX\[13\]
*CELL NULL
*C2_R1_C1 2.340e-03 7.370e-03 2.340e-03 
*LOADS
*RC U292:C 3.449e-05
*END

*R_NET i_UART_DATA_TX\[12\] 4.680e-03
*DRIVER i_UART_DATA_TX\[12\]
*CELL NULL
*C2_R1_C1 2.340e-03 7.370e-03 2.340e-03 
*LOADS
*RC U290:C 3.449e-05
*END

*R_NET i_UART_DATA_TX\[11\] 4.680e-03
*DRIVER i_UART_DATA_TX\[11\]
*CELL NULL
*C2_R1_C1 2.340e-03 7.370e-03 2.340e-03 
*LOADS
*RC U288:C 3.449e-05
*END

*R_NET i_UART_DATA_TX\[10\] 4.680e-03
*DRIVER i_UART_DATA_TX\[10\]
*CELL NULL
*C2_R1_C1 2.340e-03 7.370e-03 2.340e-03 
*LOADS
*RC U286:C 3.449e-05
*END

*R_NET i_UART_DATA_TX\[9\] 4.680e-03
*DRIVER i_UART_DATA_TX\[9\]
*CELL NULL
*C2_R1_C1 2.340e-03 7.370e-03 2.340e-03 
*LOADS
*RC U284:C 3.449e-05
*END

*R_NET i_UART_DATA_TX\[8\] 4.680e-03
*DRIVER i_UART_DATA_TX\[8\]
*CELL NULL
*C2_R1_C1 2.340e-03 7.370e-03 2.340e-03 
*LOADS
*RC U282:C 3.449e-05
*END

*R_NET i_UART_DATA_TX\[7\] 4.590e-03
*DRIVER i_UART_DATA_TX\[7\]
*CELL NULL
*C2_R1_C1 2.295e-03 7.370e-03 2.295e-03 
*LOADS
*RC U77:A 3.383e-05
*END

*R_NET i_UART_DATA_TX\[6\] 4.590e-03
*DRIVER i_UART_DATA_TX\[6\]
*CELL NULL
*C2_R1_C1 2.295e-03 7.370e-03 2.295e-03 
*LOADS
*RC U78:A 3.383e-05
*END

*R_NET i_UART_DATA_TX\[5\] 4.590e-03
*DRIVER i_UART_DATA_TX\[5\]
*CELL NULL
*C2_R1_C1 2.295e-03 7.370e-03 2.295e-03 
*LOADS
*RC U79:A 3.383e-05
*END

*R_NET i_UART_DATA_TX\[4\] 4.590e-03
*DRIVER i_UART_DATA_TX\[4\]
*CELL NULL
*C2_R1_C1 2.295e-03 7.370e-03 2.295e-03 
*LOADS
*RC U80:A 3.383e-05
*END

*R_NET i_UART_DATA_TX\[3\] 4.590e-03
*DRIVER i_UART_DATA_TX\[3\]
*CELL NULL
*C2_R1_C1 2.295e-03 7.370e-03 2.295e-03 
*LOADS
*RC U81:A 3.383e-05
*END

*R_NET i_UART_DATA_TX\[2\] 4.590e-03
*DRIVER i_UART_DATA_TX\[2\]
*CELL NULL
*C2_R1_C1 2.295e-03 7.370e-03 2.295e-03 
*LOADS
*RC U82:A 3.383e-05
*END

*R_NET i_UART_DATA_TX\[1\] 4.590e-03
*DRIVER i_UART_DATA_TX\[1\]
*CELL NULL
*C2_R1_C1 2.295e-03 7.370e-03 2.295e-03 
*LOADS
*RC U83:A 3.383e-05
*END

*R_NET i_UART_DATA_TX\[0\] 4.590e-03
*DRIVER i_UART_DATA_TX\[0\]
*CELL NULL
*C2_R1_C1 2.295e-03 7.370e-03 2.295e-03 
*LOADS
*RC U84:A 3.383e-05
*END

*R_NET i_UART_DATA_TX_VALID 2.071e-02
*DRIVER i_UART_DATA_TX_VALID
*CELL NULL
*C2_R1_C1 1.035e-02 1.094e-02 1.035e-02 
*LOADS
*RC U256:A 2.266e-04
*RC U255:A 2.266e-04
*RC U438:A 2.266e-04
*RC U439:A 2.266e-04
*END

*R_NET o_UART_DATA_TX_READY 1.777e-02
*DRIVER o_UART_DATA_TX_READY_reg:Q
*CELL fd2qd1_hd
*C2_R1_C1 8.885e-03 9.100e-03 8.885e-03 
*LOADS
*RC U396:D0 1.617e-04
*RC o_UART_DATA_TX_READY 1.617e-04
*END

*R_NET o_UART_DATA_RX\[15\] 1.777e-02
*DRIVER o_UART_DATA_RX_reg_15_:Q
*CELL fd2qd1_hd
*C2_R1_C1 8.885e-03 9.100e-03 8.885e-03 
*LOADS
*RC U393:D0 1.617e-04
*RC o_UART_DATA_RX\[15\] 1.617e-04
*END

*R_NET o_UART_DATA_RX\[14\] 1.777e-02
*DRIVER o_UART_DATA_RX_reg_14_:Q
*CELL fd2qd1_hd
*C2_R1_C1 8.885e-03 9.100e-03 8.885e-03 
*LOADS
*RC U392:D0 1.617e-04
*RC o_UART_DATA_RX\[14\] 1.617e-04
*END

*R_NET o_UART_DATA_RX\[13\] 1.777e-02
*DRIVER o_UART_DATA_RX_reg_13_:Q
*CELL fd2qd1_hd
*C2_R1_C1 8.885e-03 9.100e-03 8.885e-03 
*LOADS
*RC U391:D0 1.617e-04
*RC o_UART_DATA_RX\[13\] 1.617e-04
*END

*R_NET o_UART_DATA_RX\[12\] 1.777e-02
*DRIVER o_UART_DATA_RX_reg_12_:Q
*CELL fd2qd1_hd
*C2_R1_C1 8.885e-03 9.100e-03 8.885e-03 
*LOADS
*RC U390:D0 1.617e-04
*RC o_UART_DATA_RX\[12\] 1.617e-04
*END

*R_NET o_UART_DATA_RX\[11\] 1.777e-02
*DRIVER o_UART_DATA_RX_reg_11_:Q
*CELL fd2qd1_hd
*C2_R1_C1 8.885e-03 9.100e-03 8.885e-03 
*LOADS
*RC U389:D0 1.617e-04
*RC o_UART_DATA_RX\[11\] 1.617e-04
*END

*R_NET o_UART_DATA_RX\[10\] 1.777e-02
*DRIVER o_UART_DATA_RX_reg_10_:Q
*CELL fd2qd1_hd
*C2_R1_C1 8.885e-03 9.100e-03 8.885e-03 
*LOADS
*RC U388:D0 1.617e-04
*RC o_UART_DATA_RX\[10\] 1.617e-04
*END

*R_NET o_UART_DATA_RX\[9\] 1.777e-02
*DRIVER o_UART_DATA_RX_reg_9_:Q
*CELL fd2qd1_hd
*C2_R1_C1 8.885e-03 9.100e-03 8.885e-03 
*LOADS
*RC U387:D0 1.617e-04
*RC o_UART_DATA_RX\[9\] 1.617e-04
*END

*R_NET o_UART_DATA_RX\[8\] 1.777e-02
*DRIVER o_UART_DATA_RX_reg_8_:Q
*CELL fd2qd1_hd
*C2_R1_C1 8.885e-03 9.100e-03 8.885e-03 
*LOADS
*RC U386:D0 1.617e-04
*RC o_UART_DATA_RX\[8\] 1.617e-04
*END

*R_NET o_UART_DATA_RX\[7\] 1.777e-02
*DRIVER o_UART_DATA_RX_reg_7_:Q
*CELL fd2qd1_hd
*C2_R1_C1 8.885e-03 9.100e-03 8.885e-03 
*LOADS
*RC U421:D0 1.617e-04
*RC o_UART_DATA_RX\[7\] 1.617e-04
*END

*R_NET o_UART_DATA_RX\[6\] 1.777e-02
*DRIVER o_UART_DATA_RX_reg_6_:Q
*CELL fd2qd1_hd
*C2_R1_C1 8.885e-03 9.100e-03 8.885e-03 
*LOADS
*RC U420:D0 1.617e-04
*RC o_UART_DATA_RX\[6\] 1.617e-04
*END

*R_NET o_UART_DATA_RX\[5\] 1.777e-02
*DRIVER o_UART_DATA_RX_reg_5_:Q
*CELL fd2qd1_hd
*C2_R1_C1 8.885e-03 9.100e-03 8.885e-03 
*LOADS
*RC U419:D0 1.617e-04
*RC o_UART_DATA_RX\[5\] 1.617e-04
*END

*R_NET o_UART_DATA_RX\[4\] 1.777e-02
*DRIVER o_UART_DATA_RX_reg_4_:Q
*CELL fd2qd1_hd
*C2_R1_C1 8.885e-03 9.100e-03 8.885e-03 
*LOADS
*RC U418:D0 1.617e-04
*RC o_UART_DATA_RX\[4\] 1.617e-04
*END

*R_NET o_UART_DATA_RX\[3\] 1.777e-02
*DRIVER o_UART_DATA_RX_reg_3_:Q
*CELL fd2qd1_hd
*C2_R1_C1 8.885e-03 9.100e-03 8.885e-03 
*LOADS
*RC U417:D0 1.617e-04
*RC o_UART_DATA_RX\[3\] 1.617e-04
*END

*R_NET o_UART_DATA_RX\[2\] 1.777e-02
*DRIVER o_UART_DATA_RX_reg_2_:Q
*CELL fd2qd1_hd
*C2_R1_C1 8.885e-03 9.100e-03 8.885e-03 
*LOADS
*RC U416:D0 1.617e-04
*RC o_UART_DATA_RX\[2\] 1.617e-04
*END

*R_NET o_UART_DATA_RX\[1\] 1.777e-02
*DRIVER o_UART_DATA_RX_reg_1_:Q
*CELL fd2qd1_hd
*C2_R1_C1 8.885e-03 9.100e-03 8.885e-03 
*LOADS
*RC U415:D0 1.617e-04
*RC o_UART_DATA_RX\[1\] 1.617e-04
*END

*R_NET o_UART_DATA_RX\[0\] 1.777e-02
*DRIVER o_UART_DATA_RX_reg_0_:Q
*CELL fd2qd1_hd
*C2_R1_C1 8.885e-03 9.100e-03 8.885e-03 
*LOADS
*RC U414:D0 1.617e-04
*RC o_UART_DATA_RX\[0\] 1.617e-04
*END

*R_NET o_UART_DATA_RX_VALID 1.777e-02
*DRIVER o_UART_DATA_RX_VALID_reg:Q
*CELL fd2qd1_hd
*C2_R1_C1 8.885e-03 9.100e-03 8.885e-03 
*LOADS
*RC U394:D0 1.617e-04
*RC o_UART_DATA_RX_VALID 1.617e-04
*END

*R_NET i_CORE_BUSY 2.715e-02
*DRIVER i_CORE_BUSY
*CELL NULL
*C2_R1_C1 1.358e-02 1.549e-02 1.358e-02 
*LOADS
*RC U212:A 4.206e-04
*RC U424:B 4.206e-04
*RC U86:B 4.206e-04
*RC U100:B 4.206e-04
*RC U105:A 4.206e-04
*END

*R_NET i_UART_RXD 4.620e-03
*DRIVER i_UART_RXD
*CELL NULL
*C2_R1_C1 2.310e-03 7.370e-03 2.310e-03 
*LOADS
*RC uart_rx/r_Rx_Data_R_reg:D 3.405e-05
*END

*R_NET o_UART_TXD 1.777e-02
*DRIVER uart_tx/o_Tx_Serial_reg:Q
*CELL fd3qd1_hd
*C2_R1_C1 8.885e-03 9.100e-03 8.885e-03 
*LOADS
*RC uart_tx/U82:D0 1.617e-04
*RC o_UART_TXD 1.617e-04
*END

*R_NET i_CLK 3.025e-01
*DRIVER i_CLK
*CELL NULL
*C2_R1_C1 1.513e-01 0.000e+00 1.513e-01 
*LOADS
*RC uart_rx/async_rst_synchronizer/r_ff_reg:CK 0.000e+00
*RC uart_rx/async_rst_synchronizer/o_RST_reg:CK 0.000e+00
*RC uart_tx/async_rst_synchronizer/o_RST_reg:CK 0.000e+00
*RC uart_tx/async_rst_synchronizer/r_ff_reg:CK 0.000e+00
*RC uart_rx/r_Clock_Count_reg_2_:CK 0.000e+00
*RC uart_rx/r_Rx_Data_reg:CK 0.000e+00
*RC uart_rx/r_Clock_Count_reg_6_:CK 0.000e+00
*RC uart_rx/r_Clock_Count_reg_5_:CK 0.000e+00
*RC uart_rx/r_Clock_Count_reg_3_:CK 0.000e+00
*RC uart_rx/r_SM_Main_reg_0_:CK 0.000e+00
*RC uart_rx/r_Clock_Count_reg_0_:CK 0.000e+00
*RC uart_rx/r_Clock_Count_reg_1_:CK 0.000e+00
*RC uart_rx/r_Clock_Count_reg_4_:CK 0.000e+00
*RC uart_rx/r_Clock_Count_reg_7_:CK 0.000e+00
*RC uart_rx/r_Rx_Byte_reg_0_:CK 0.000e+00
*RC uart_rx/r_Rx_Byte_reg_1_:CK 0.000e+00
*RC uart_rx/r_Rx_Byte_reg_2_:CK 0.000e+00
*RC uart_rx/r_Rx_Byte_reg_3_:CK 0.000e+00
*RC uart_rx/r_Rx_Byte_reg_4_:CK 0.000e+00
*RC uart_rx/r_Rx_Byte_reg_5_:CK 0.000e+00
*RC uart_rx/r_Rx_Byte_reg_6_:CK 0.000e+00
*RC uart_rx/r_Rx_Byte_reg_7_:CK 0.000e+00
*RC uart_rx/r_SM_Main_reg_1_:CK 0.000e+00
*RC uart_rx/r_Rx_DV_reg:CK 0.000e+00
*RC uart_rx/r_SM_Main_reg_2_:CK 0.000e+00
*RC uart_rx/r_Bit_Index_reg_2_:CK 0.000e+00
*RC uart_rx/r_Bit_Index_reg_1_:CK 0.000e+00
*RC uart_rx/r_Bit_Index_reg_0_:CK 0.000e+00
*RC uart_rx/r_Rx_Data_R_reg:CK 0.000e+00
*RC uart_tx/r_Bit_Index_reg_1_:CK 0.000e+00
*RC uart_tx/r_Bit_Index_reg_2_:CK 0.000e+00
*RC uart_tx/r_SM_Main_reg_0_:CK 0.000e+00
*RC uart_tx/r_Tx_Data_reg_0_:CK 0.000e+00
*RC uart_tx/r_Tx_Data_reg_1_:CK 0.000e+00
*RC uart_tx/r_Tx_Data_reg_2_:CK 0.000e+00
*RC uart_tx/r_Tx_Data_reg_3_:CK 0.000e+00
*RC uart_tx/r_Tx_Data_reg_4_:CK 0.000e+00
*RC uart_tx/r_Tx_Data_reg_5_:CK 0.000e+00
*RC uart_tx/r_Tx_Data_reg_6_:CK 0.000e+00
*RC uart_tx/r_Tx_Data_reg_7_:CK 0.000e+00
*RC uart_tx/r_Clock_Count_reg_7_:CK 0.000e+00
*RC uart_tx/r_Clock_Count_reg_0_:CK 0.000e+00
*RC uart_tx/r_Clock_Count_reg_1_:CK 0.000e+00
*RC uart_tx/r_Clock_Count_reg_2_:CK 0.000e+00
*RC uart_tx/r_Clock_Count_reg_3_:CK 0.000e+00
*RC uart_tx/r_Clock_Count_reg_4_:CK 0.000e+00
*RC uart_tx/r_Clock_Count_reg_5_:CK 0.000e+00
*RC uart_tx/r_Clock_Count_reg_6_:CK 0.000e+00
*RC uart_tx/r_Tx_Done_reg:CK 0.000e+00
*RC uart_tx/r_SM_Main_reg_1_:CK 0.000e+00
*RC uart_tx/r_SM_Main_reg_2_:CK 0.000e+00
*RC uart_tx/r_Bit_Index_reg_0_:CK 0.000e+00
*RC uart_tx/o_Tx_Serial_reg:CK 0.000e+00
*RC async_rstn_synchronizer/r_ff_reg:CK 0.000e+00
*RC async_rstn_synchronizer/o_RSTN_reg:CK 0.000e+00
*RC r_uart_data_tx_shift_reg_8_:CK 0.000e+00
*RC r_uart_data_tx_shift_reg_9_:CK 0.000e+00
*RC r_uart_data_tx_shift_reg_10_:CK 0.000e+00
*RC r_uart_data_tx_shift_reg_11_:CK 0.000e+00
*RC r_uart_data_tx_shift_reg_12_:CK 0.000e+00
*RC r_uart_data_tx_shift_reg_13_:CK 0.000e+00
*RC r_uart_data_tx_shift_reg_14_:CK 0.000e+00
*RC r_uart_data_tx_shift_reg_15_:CK 0.000e+00
*RC r_uart_data_tx_shift_reg_16_:CK 0.000e+00
*RC r_uart_data_tx_shift_reg_17_:CK 0.000e+00
*RC r_uart_data_tx_shift_reg_18_:CK 0.000e+00
*RC r_uart_data_tx_shift_reg_19_:CK 0.000e+00
*RC r_uart_data_tx_shift_reg_20_:CK 0.000e+00
*RC r_uart_data_tx_shift_reg_21_:CK 0.000e+00
*RC r_uart_data_tx_shift_reg_22_:CK 0.000e+00
*RC r_uart_data_tx_shift_reg_23_:CK 0.000e+00
*RC r_uart_data_tx_shift_reg_24_:CK 0.000e+00
*RC r_uart_data_tx_shift_reg_25_:CK 0.000e+00
*RC r_uart_data_tx_shift_reg_26_:CK 0.000e+00
*RC r_uart_data_tx_shift_reg_27_:CK 0.000e+00
*RC r_uart_data_tx_shift_reg_28_:CK 0.000e+00
*RC r_uart_data_tx_shift_reg_29_:CK 0.000e+00
*RC r_uart_data_tx_shift_reg_30_:CK 0.000e+00
*RC r_uart_data_tx_shift_reg_31_:CK 0.000e+00
*RC r_uart_data_tx_shift_reg_32_:CK 0.000e+00
*RC r_uart_data_tx_shift_reg_33_:CK 0.000e+00
*RC r_uart_data_tx_shift_reg_34_:CK 0.000e+00
*RC r_uart_data_tx_shift_reg_35_:CK 0.000e+00
*RC r_uart_data_tx_shift_reg_36_:CK 0.000e+00
*RC r_uart_data_tx_shift_reg_37_:CK 0.000e+00
*RC r_uart_data_tx_shift_reg_38_:CK 0.000e+00
*RC r_uart_data_tx_shift_reg_39_:CK 0.000e+00
*RC r_uart_data_tx_shift_reg_40_:CK 0.000e+00
*RC r_uart_data_tx_shift_reg_41_:CK 0.000e+00
*RC r_uart_data_tx_shift_reg_42_:CK 0.000e+00
*RC r_uart_data_tx_shift_reg_43_:CK 0.000e+00
*RC r_uart_data_tx_shift_reg_44_:CK 0.000e+00
*RC r_uart_data_tx_shift_reg_45_:CK 0.000e+00
*RC r_uart_data_tx_shift_reg_46_:CK 0.000e+00
*RC r_uart_data_tx_shift_reg_47_:CK 0.000e+00
*RC r_uart_data_tx_shift_reg_48_:CK 0.000e+00
*RC r_uart_data_tx_shift_reg_49_:CK 0.000e+00
*RC r_uart_data_tx_shift_reg_50_:CK 0.000e+00
*RC r_uart_data_tx_shift_reg_51_:CK 0.000e+00
*RC r_uart_data_tx_shift_reg_52_:CK 0.000e+00
*RC r_uart_data_tx_shift_reg_53_:CK 0.000e+00
*RC r_uart_data_tx_shift_reg_54_:CK 0.000e+00
*RC r_uart_data_tx_shift_reg_55_:CK 0.000e+00
*RC r_uart_data_tx_shift_reg_0_:CK 0.000e+00
*RC r_uart_data_tx_shift_reg_1_:CK 0.000e+00
*RC r_uart_data_tx_shift_reg_2_:CK 0.000e+00
*RC r_uart_data_tx_shift_reg_3_:CK 0.000e+00
*RC r_uart_data_tx_shift_reg_4_:CK 0.000e+00
*RC r_uart_data_tx_shift_reg_5_:CK 0.000e+00
*RC r_uart_data_tx_shift_reg_6_:CK 0.000e+00
*RC r_uart_data_tx_shift_reg_7_:CK 0.000e+00
*RC r_pstate_reg_1_:CK 0.000e+00
*RC o_UART_DATA_RX_reg_8_:CK 0.000e+00
*RC o_UART_DATA_RX_reg_9_:CK 0.000e+00
*RC o_UART_DATA_RX_reg_10_:CK 0.000e+00
*RC o_UART_DATA_RX_reg_11_:CK 0.000e+00
*RC o_UART_DATA_RX_reg_12_:CK 0.000e+00
*RC o_UART_DATA_RX_reg_13_:CK 0.000e+00
*RC o_UART_DATA_RX_reg_14_:CK 0.000e+00
*RC o_UART_DATA_RX_reg_15_:CK 0.000e+00
*RC o_UART_DATA_RX_VALID_reg:CK 0.000e+00
*RC o_UART_DATA_TX_READY_reg:CK 0.000e+00
*RC r_pstate_reg_2_:CK 0.000e+00
*RC r_uart_data_tx_reg_0_:CK 0.000e+00
*RC r_uart_data_tx_reg_1_:CK 0.000e+00
*RC r_uart_data_tx_reg_2_:CK 0.000e+00
*RC r_uart_data_tx_reg_3_:CK 0.000e+00
*RC r_uart_data_tx_reg_4_:CK 0.000e+00
*RC r_uart_data_tx_reg_5_:CK 0.000e+00
*RC r_uart_data_tx_reg_6_:CK 0.000e+00
*RC r_uart_data_tx_reg_7_:CK 0.000e+00
*RC r_uart_data_tx_valid_reg:CK 0.000e+00
*RC r_data_counter_reg_0_:CK 0.000e+00
*RC r_data_counter_reg_1_:CK 0.000e+00
*RC r_data_counter_reg_2_:CK 0.000e+00
*RC r_lstate_reg_0_:CK 0.000e+00
*RC r_lstate_reg_1_:CK 0.000e+00
*RC o_UART_DATA_RX_reg_0_:CK 0.000e+00
*RC o_UART_DATA_RX_reg_1_:CK 0.000e+00
*RC o_UART_DATA_RX_reg_2_:CK 0.000e+00
*RC o_UART_DATA_RX_reg_3_:CK 0.000e+00
*RC o_UART_DATA_RX_reg_4_:CK 0.000e+00
*RC o_UART_DATA_RX_reg_5_:CK 0.000e+00
*RC o_UART_DATA_RX_reg_6_:CK 0.000e+00
*RC o_UART_DATA_RX_reg_7_:CK 0.000e+00
*RC r_pstate_reg_0_:CK 0.000e+00
*RC async_rst_synchronizer/o_RST_reg:CK 0.000e+00
*RC async_rst_synchronizer/r_ff_reg:CK 0.000e+00
*END

*R_NET w_rst 1.038e-02
*DRIVER async_rst_synchronizer/o_RST_reg:Q
*CELL fd3qd1_hd
*C2_R1_C1 5.190e-03 7.370e-03 5.190e-03 
*LOADS
*RC U428:A 7.650e-05
*END

*R_NET w_rstn 2.813e-02
*DRIVER async_rstn_synchronizer/o_RSTN_reg:Q
*CELL fd2qd1_hd
*C2_R1_C1 1.406e-02 1.094e-02 1.406e-02 
*LOADS
*RC uart_rx/async_rst_synchronizer/r_ff_reg:SN 3.077e-04
*RC uart_rx/async_rst_synchronizer/o_RST_reg:SN 3.077e-04
*RC uart_tx/async_rst_synchronizer/o_RST_reg:SN 3.077e-04
*RC uart_tx/async_rst_synchronizer/r_ff_reg:SN 3.077e-04
*END

*R_NET r_uart_data_tx_valid 9.010e-03
*DRIVER r_uart_data_tx_valid_reg:Q
*CELL fd2qd1_hd
*C2_R1_C1 4.505e-03 9.100e-03 4.505e-03 
*LOADS
*RC U408:D0 8.199e-05
*RC uart_tx/U10:B 8.199e-05
*END

*R_NET r_uart_data_tx\[7\] 9.360e-03
*DRIVER r_uart_data_tx_reg_7_:Q
*CELL fd2qd1_hd
*C2_R1_C1 4.680e-03 9.100e-03 4.680e-03 
*LOADS
*RC U407:D0 8.518e-05
*RC uart_tx/U68:D1 8.518e-05
*END

*R_NET r_uart_data_tx\[6\] 9.360e-03
*DRIVER r_uart_data_tx_reg_6_:Q
*CELL fd2qd1_hd
*C2_R1_C1 4.680e-03 9.100e-03 4.680e-03 
*LOADS
*RC U406:D0 8.518e-05
*RC uart_tx/U67:D1 8.518e-05
*END

*R_NET r_uart_data_tx\[5\] 9.360e-03
*DRIVER r_uart_data_tx_reg_5_:Q
*CELL fd2qd1_hd
*C2_R1_C1 4.680e-03 9.100e-03 4.680e-03 
*LOADS
*RC U405:D0 8.518e-05
*RC uart_tx/U66:D1 8.518e-05
*END

*R_NET r_uart_data_tx\[4\] 9.360e-03
*DRIVER r_uart_data_tx_reg_4_:Q
*CELL fd2qd1_hd
*C2_R1_C1 4.680e-03 9.100e-03 4.680e-03 
*LOADS
*RC U404:D0 8.518e-05
*RC uart_tx/U65:D1 8.518e-05
*END

*R_NET r_uart_data_tx\[3\] 9.360e-03
*DRIVER r_uart_data_tx_reg_3_:Q
*CELL fd2qd1_hd
*C2_R1_C1 4.680e-03 9.100e-03 4.680e-03 
*LOADS
*RC U403:D0 8.518e-05
*RC uart_tx/U64:D1 8.518e-05
*END

*R_NET r_uart_data_tx\[2\] 9.360e-03
*DRIVER r_uart_data_tx_reg_2_:Q
*CELL fd2qd1_hd
*C2_R1_C1 4.680e-03 9.100e-03 4.680e-03 
*LOADS
*RC U402:D0 8.518e-05
*RC uart_tx/U63:D1 8.518e-05
*END

*R_NET r_uart_data_tx\[1\] 9.360e-03
*DRIVER r_uart_data_tx_reg_1_:Q
*CELL fd2qd1_hd
*C2_R1_C1 4.680e-03 9.100e-03 4.680e-03 
*LOADS
*RC U401:D0 8.518e-05
*RC uart_tx/U62:D1 8.518e-05
*END

*R_NET r_uart_data_tx\[0\] 9.360e-03
*DRIVER r_uart_data_tx_reg_0_:Q
*CELL fd2qd1_hd
*C2_R1_C1 4.680e-03 9.100e-03 4.680e-03 
*LOADS
*RC U400:D0 8.518e-05
*RC uart_tx/U61:D1 8.518e-05
*END

*R_NET w_uart_data_tx_done 2.653e-02
*DRIVER uart_tx/r_Tx_Done_reg:Q
*CELL fd2d1_hd
*C2_R1_C1 1.327e-02 1.549e-02 1.327e-02 
*LOADS
*RC uart_tx/U77:D0 4.109e-04
*RC U253:B 4.109e-04
*RC U271:B 4.109e-04
*RC U23:B 4.109e-04
*RC U447:A 4.109e-04
*END

*R_NET w_uart_data_rx_valid 4.410e-02
*DRIVER uart_rx/r_Rx_DV_reg:Q
*CELL fd2qd1_hd
*C2_R1_C1 2.205e-02 2.066e-02 2.205e-02 
*LOADS
*RC uart_rx/U112:D0 9.111e-04
*RC U427:A 9.111e-04
*RC U426:A 9.111e-04
*RC U425:B 9.111e-04
*RC U424:A 9.111e-04
*RC U439:B 9.111e-04
*RC U440:A 9.111e-04
*RC U100:D 9.111e-04
*END

*R_NET r_pstate\[2\] 3.023e-02
*DRIVER r_pstate_reg_2_:Q
*CELL fd2qd1_hd
*C2_R1_C1 1.512e-02 1.674e-02 1.512e-02 
*LOADS
*RC U252:A 5.061e-04
*RC U265:A 5.061e-04
*RC U275:A 5.061e-04
*RC U398:D0 5.061e-04
*RC U442:A 5.061e-04
*RC U10:C 5.061e-04
*END

*R_NET r_pstate\[1\] 3.465e-02
*DRIVER r_pstate_reg_1_:Q
*CELL fd2qd1_hd
*C2_R1_C1 1.733e-02 1.715e-02 1.733e-02 
*LOADS
*RC U228:A 5.942e-04
*RC U252:B 5.942e-04
*RC U275:B 5.942e-04
*RC U277:B 5.942e-04
*RC U385:D0 5.942e-04
*RC U8:A 5.942e-04
*RC U10:A 5.942e-04
*END

*R_NET r_pstate\[0\] 2.601e-02
*DRIVER r_pstate_reg_0_:Q
*CELL fd4qd1_hd
*C2_R1_C1 1.300e-02 1.549e-02 1.300e-02 
*LOADS
*RC U422:D0 4.029e-04
*RC U429:A 4.029e-04
*RC U436:B 4.029e-04
*RC U8:B 4.029e-04
*RC U10:B 4.029e-04
*END

*R_NET r_uart_data_tx_shift\[55\] 2.471e-02
*DRIVER r_uart_data_tx_shift_reg_55_:Q
*CELL fd2qd1_hd
*C2_R1_C1 1.235e-02 1.549e-02 1.235e-02 
*LOADS
*RC U214:B 3.828e-04
*RC U218:B 3.828e-04
*RC U230:A 3.828e-04
*RC U375:D0 3.828e-04
*RC U88:A 3.828e-04
*END

*R_NET r_uart_data_tx_shift\[54\] 2.033e-02
*DRIVER r_uart_data_tx_shift_reg_54_:Q
*CELL fd2qd1_hd
*C2_R1_C1 1.017e-02 1.094e-02 1.017e-02 
*LOADS
*RC U203:A 2.224e-04
*RC U229:A 2.224e-04
*RC U373:D0 2.224e-04
*RC U89:A 2.224e-04
*END

*R_NET r_uart_data_tx_shift\[53\] 1.452e-02
*DRIVER r_uart_data_tx_shift_reg_53_:Q
*CELL fd2qd1_hd
*C2_R1_C1 7.260e-03 9.460e-03 7.260e-03 
*LOADS
*RC U231:A 1.374e-04
*RC U371:D0 1.374e-04
*RC U90:A 1.374e-04
*END

*R_NET r_uart_data_tx_shift\[52\] 2.405e-02
*DRIVER r_uart_data_tx_shift_reg_52_:Q
*CELL fd2qd1_hd
*C2_R1_C1 1.203e-02 1.549e-02 1.203e-02 
*LOADS
*RC U216:A 3.725e-04
*RC U245:A 3.725e-04
*RC U268:A 3.725e-04
*RC U369:D0 3.725e-04
*RC U91:A 3.725e-04
*END

*R_NET r_uart_data_tx_shift\[51\] 2.033e-02
*DRIVER r_uart_data_tx_shift_reg_51_:Q
*CELL fd2qd1_hd
*C2_R1_C1 1.017e-02 1.094e-02 1.017e-02 
*LOADS
*RC U232:A 2.224e-04
*RC U244:A 2.224e-04
*RC U367:D0 2.224e-04
*RC U92:A 2.224e-04
*END

*R_NET r_uart_data_tx_shift\[50\] 2.429e-02
*DRIVER r_uart_data_tx_shift_reg_50_:Q
*CELL fd2qd1_hd
*C2_R1_C1 1.214e-02 1.549e-02 1.214e-02 
*LOADS
*RC U243:A 3.763e-04
*RC U249:A 3.763e-04
*RC U266:A 3.763e-04
*RC U365:D0 3.763e-04
*RC U93:A 3.763e-04
*END

*R_NET r_uart_data_tx_shift\[49\] 2.429e-02
*DRIVER r_uart_data_tx_shift_reg_49_:Q
*CELL fd2qd1_hd
*C2_R1_C1 1.214e-02 1.549e-02 1.214e-02 
*LOADS
*RC U242:A 3.763e-04
*RC U247:A 3.763e-04
*RC U270:A 3.763e-04
*RC U363:D0 3.763e-04
*RC U94:A 3.763e-04
*END

*R_NET r_uart_data_tx_shift\[48\] 2.087e-02
*DRIVER r_uart_data_tx_shift_reg_48_:Q
*CELL fd2qd1_hd
*C2_R1_C1 1.044e-02 1.094e-02 1.044e-02 
*LOADS
*RC U246:A 2.283e-04
*RC U361:D0 2.283e-04
*RC U450:A 2.283e-04
*RC U95:A 2.283e-04
*END
