*SPEF "IEEE 1481-1999"
*DESIGN "uart_controller"
*DATE "Wed May 13 02:34:01 2020"
*VENDOR "SYNOPSYS INC"
*PROGRAM "Synopsys Design Compiler cmos"
*VERSION "F-2011.09-SP5-3"
*DESIGN_FLOW "SYNTHESIS"
*DIVIDER /
*DELIMITER :
*BUS_DELIMITER []
*T_UNIT 1.0 NS
*C_UNIT 1.0 PF
*R_UNIT 1.0 KOHM
*L_UNIT 1.0 HENRY

*PORTS

i_UART_DATA_TX\[55\] I *L 0.000e+00 *S 0.000e+00 0.000e+00 
i_UART_DATA_TX\[54\] I *L 0.000e+00 *S 0.000e+00 0.000e+00 
i_UART_DATA_TX\[53\] I *L 0.000e+00 *S 0.000e+00 0.000e+00 
i_UART_DATA_TX\[52\] I *L 0.000e+00 *S 0.000e+00 0.000e+00 
i_UART_DATA_TX\[51\] I *L 0.000e+00 *S 0.000e+00 0.000e+00 
i_UART_DATA_TX\[50\] I *L 0.000e+00 *S 0.000e+00 0.000e+00 
i_UART_DATA_TX\[49\] I *L 0.000e+00 *S 0.000e+00 0.000e+00 
i_UART_DATA_TX\[48\] I *L 0.000e+00 *S 0.000e+00 0.000e+00 
i_UART_DATA_TX\[47\] I *L 0.000e+00 *S 0.000e+00 0.000e+00 
i_UART_DATA_TX\[46\] I *L 0.000e+00 *S 0.000e+00 0.000e+00 
i_UART_DATA_TX\[45\] I *L 0.000e+00 *S 0.000e+00 0.000e+00 
i_UART_DATA_TX\[44\] I *L 0.000e+00 *S 0.000e+00 0.000e+00 
i_UART_DATA_TX\[43\] I *L 0.000e+00 *S 0.000e+00 0.000e+00 
i_UART_DATA_TX\[42\] I *L 0.000e+00 *S 0.000e+00 0.000e+00 
i_UART_DATA_TX\[41\] I *L 0.000e+00 *S 0.000e+00 0.000e+00 
i_UART_DATA_TX\[40\] I *L 0.000e+00 *S 0.000e+00 0.000e+00 
i_UART_DATA_TX\[39\] I *L 0.000e+00 *S 0.000e+00 0.000e+00 
i_UART_DATA_TX\[38\] I *L 0.000e+00 *S 0.000e+00 0.000e+00 
i_UART_DATA_TX\[37\] I *L 0.000e+00 *S 0.000e+00 0.000e+00 
i_UART_DATA_TX\[36\] I *L 0.000e+00 *S 0.000e+00 0.000e+00 
i_UART_DATA_TX\[35\] I *L 0.000e+00 *S 0.000e+00 0.000e+00 
i_UART_DATA_TX\[34\] I *L 0.000e+00 *S 0.000e+00 0.000e+00 
i_UART_DATA_TX\[33\] I *L 0.000e+00 *S 0.000e+00 0.000e+00 
i_UART_DATA_TX\[32\] I *L 0.000e+00 *S 0.000e+00 0.000e+00 
i_UART_DATA_TX\[31\] I *L 0.000e+00 *S 0.000e+00 0.000e+00 
i_UART_DATA_TX\[30\] I *L 0.000e+00 *S 0.000e+00 0.000e+00 
i_UART_DATA_TX\[29\] I *L 0.000e+00 *S 0.000e+00 0.000e+00 
i_UART_DATA_TX\[28\] I *L 0.000e+00 *S 0.000e+00 0.000e+00 
i_UART_DATA_TX\[27\] I *L 0.000e+00 *S 0.000e+00 0.000e+00 
i_UART_DATA_TX\[26\] I *L 0.000e+00 *S 0.000e+00 0.000e+00 
i_UART_DATA_TX\[25\] I *L 0.000e+00 *S 0.000e+00 0.000e+00 
i_UART_DATA_TX\[24\] I *L 0.000e+00 *S 0.000e+00 0.000e+00 
i_UART_DATA_TX\[23\] I *L 0.000e+00 *S 0.000e+00 0.000e+00 
i_UART_DATA_TX\[22\] I *L 0.000e+00 *S 0.000e+00 0.000e+00 
i_UART_DATA_TX\[21\] I *L 0.000e+00 *S 0.000e+00 0.000e+00 
i_UART_DATA_TX\[20\] I *L 0.000e+00 *S 0.000e+00 0.000e+00 
i_UART_DATA_TX\[19\] I *L 0.000e+00 *S 0.000e+00 0.000e+00 
i_UART_DATA_TX\[18\] I *L 0.000e+00 *S 0.000e+00 0.000e+00 
i_UART_DATA_TX\[17\] I *L 0.000e+00 *S 0.000e+00 0.000e+00 
i_UART_DATA_TX\[16\] I *L 0.000e+00 *S 0.000e+00 0.000e+00 
i_UART_DATA_TX\[15\] I *L 0.000e+00 *S 0.000e+00 0.000e+00 
i_UART_DATA_TX\[14\] I *L 0.000e+00 *S 0.000e+00 0.000e+00 
i_UART_DATA_TX\[13\] I *L 0.000e+00 *S 0.000e+00 0.000e+00 
i_UART_DATA_TX\[12\] I *L 0.000e+00 *S 0.000e+00 0.000e+00 
i_UART_DATA_TX\[11\] I *L 0.000e+00 *S 0.000e+00 0.000e+00 
i_UART_DATA_TX\[10\] I *L 0.000e+00 *S 0.000e+00 0.000e+00 
i_UART_DATA_TX\[9\] I *L 0.000e+00 *S 0.000e+00 0.000e+00 
i_UART_DATA_TX\[8\] I *L 0.000e+00 *S 0.000e+00 0.000e+00 
i_UART_DATA_TX\[7\] I *L 0.000e+00 *S 0.000e+00 0.000e+00 
i_UART_DATA_TX\[6\] I *L 0.000e+00 *S 0.000e+00 0.000e+00 
i_UART_DATA_TX\[5\] I *L 0.000e+00 *S 0.000e+00 0.000e+00 
i_UART_DATA_TX\[4\] I *L 0.000e+00 *S 0.000e+00 0.000e+00 
i_UART_DATA_TX\[3\] I *L 0.000e+00 *S 0.000e+00 0.000e+00 
i_UART_DATA_TX\[2\] I *L 0.000e+00 *S 0.000e+00 0.000e+00 
i_UART_DATA_TX\[1\] I *L 0.000e+00 *S 0.000e+00 0.000e+00 
i_UART_DATA_TX\[0\] I *L 0.000e+00 *S 0.000e+00 0.000e+00 
i_UART_DATA_TX_VALID I *L 0.000e+00 *S 0.000e+00 0.000e+00 
o_UART_DATA_TX_READY O *L 0.000e+00 *S 6.910e-02 1.009e-01 
o_UART_DATA_RX\[15\] O *L 0.000e+00 *S 3.617e-02 2.724e-02 
o_UART_DATA_RX\[14\] O *L 0.000e+00 *S 7.236e-02 1.050e-01 
o_UART_DATA_RX\[13\] O *L 0.000e+00 *S 7.016e-02 1.022e-01 
o_UART_DATA_RX\[12\] O *L 0.000e+00 *S 7.016e-02 1.022e-01 
o_UART_DATA_RX\[11\] O *L 0.000e+00 *S 6.963e-02 1.015e-01 
o_UART_DATA_RX\[10\] O *L 0.000e+00 *S 6.963e-02 1.015e-01 
o_UART_DATA_RX\[9\] O *L 0.000e+00 *S 7.016e-02 1.022e-01 
o_UART_DATA_RX\[8\] O *L 0.000e+00 *S 7.043e-02 1.025e-01 
o_UART_DATA_RX\[7\] O *L 0.000e+00 *S 6.972e-02 1.016e-01 
o_UART_DATA_RX\[6\] O *L 0.000e+00 *S 6.910e-02 1.009e-01 
o_UART_DATA_RX\[5\] O *L 0.000e+00 *S 6.910e-02 1.009e-01 
o_UART_DATA_RX\[4\] O *L 0.000e+00 *S 6.910e-02 1.009e-01 
o_UART_DATA_RX\[3\] O *L 0.000e+00 *S 6.910e-02 1.009e-01 
o_UART_DATA_RX\[2\] O *L 0.000e+00 *S 6.910e-02 1.009e-01 
o_UART_DATA_RX\[1\] O *L 0.000e+00 *S 6.910e-02 1.009e-01 
o_UART_DATA_RX\[0\] O *L 0.000e+00 *S 6.910e-02 1.009e-01 
o_UART_DATA_RX_VALID O *L 0.000e+00 *S 7.712e-02 1.109e-01 
i_CORE_BUSY I *L 0.000e+00 *S 0.000e+00 0.000e+00 
i_UART_RXD I *L 0.000e+00 *S 0.000e+00 0.000e+00 
o_UART_TXD O *L 0.000e+00 *S 7.757e-02 7.245e-02 
i_CLK I *L 0.000e+00 *S 0.000e+00 0.000e+00 
i_RST I *L 0.000e+00 *S 0.000e+00 0.000e+00 

*R_NET i_UART_DATA_TX\[55\] 5.900e-03
*DRIVER i_UART_DATA_TX\[55\]
*CELL NULL
*C2_R1_C1 2.950e-03 7.370e-03 2.950e-03 
*LOADS
*RC U425:D 4.348e-05
*END

*R_NET i_UART_DATA_TX\[54\] 5.910e-03
*DRIVER i_UART_DATA_TX\[54\]
*CELL NULL
*C2_R1_C1 2.955e-03 7.370e-03 2.955e-03 
*LOADS
*RC U459:B 4.356e-05
*END

*R_NET i_UART_DATA_TX\[53\] 5.910e-03
*DRIVER i_UART_DATA_TX\[53\]
*CELL NULL
*C2_R1_C1 2.955e-03 7.370e-03 2.955e-03 
*LOADS
*RC U461:B 4.356e-05
*END

*R_NET i_UART_DATA_TX\[52\] 5.900e-03
*DRIVER i_UART_DATA_TX\[52\]
*CELL NULL
*C2_R1_C1 2.950e-03 7.370e-03 2.950e-03 
*LOADS
*RC U423:D 4.348e-05
*END

*R_NET i_UART_DATA_TX\[51\] 5.910e-03
*DRIVER i_UART_DATA_TX\[51\]
*CELL NULL
*C2_R1_C1 2.955e-03 7.370e-03 2.955e-03 
*LOADS
*RC U463:B 4.356e-05
*END

*R_NET i_UART_DATA_TX\[50\] 4.730e-03
*DRIVER i_UART_DATA_TX\[50\]
*CELL NULL
*C2_R1_C1 2.365e-03 7.370e-03 2.365e-03 
*LOADS
*RC U333:A 3.486e-05
*END

*R_NET i_UART_DATA_TX\[49\] 4.730e-03
*DRIVER i_UART_DATA_TX\[49\]
*CELL NULL
*C2_R1_C1 2.365e-03 7.370e-03 2.365e-03 
*LOADS
*RC U329:A 3.486e-05
*END

*R_NET i_UART_DATA_TX\[48\] 5.910e-03
*DRIVER i_UART_DATA_TX\[48\]
*CELL NULL
*C2_R1_C1 2.955e-03 7.370e-03 2.955e-03 
*LOADS
*RC U467:B 4.356e-05
*END

*R_NET i_UART_DATA_TX\[47\] 4.710e-03
*DRIVER i_UART_DATA_TX\[47\]
*CELL NULL
*C2_R1_C1 2.355e-03 7.370e-03 2.355e-03 
*LOADS
*RC U383:E 3.471e-05
*END

*R_NET i_UART_DATA_TX\[46\] 4.730e-03
*DRIVER i_UART_DATA_TX\[46\]
*CELL NULL
*C2_R1_C1 2.365e-03 7.370e-03 2.365e-03 
*LOADS
*RC U422:D 3.486e-05
*END

*R_NET i_UART_DATA_TX\[45\] 4.730e-03
*DRIVER i_UART_DATA_TX\[45\]
*CELL NULL
*C2_R1_C1 2.365e-03 7.370e-03 2.365e-03 
*LOADS
*RC U421:D 3.486e-05
*END

*R_NET i_UART_DATA_TX\[44\] 4.730e-03
*DRIVER i_UART_DATA_TX\[44\]
*CELL NULL
*C2_R1_C1 2.365e-03 7.370e-03 2.365e-03 
*LOADS
*RC U420:D 3.486e-05
*END

*R_NET i_UART_DATA_TX\[43\] 4.730e-03
*DRIVER i_UART_DATA_TX\[43\]
*CELL NULL
*C2_R1_C1 2.365e-03 7.370e-03 2.365e-03 
*LOADS
*RC U419:D 3.486e-05
*END

*R_NET i_UART_DATA_TX\[42\] 4.730e-03
*DRIVER i_UART_DATA_TX\[42\]
*CELL NULL
*C2_R1_C1 2.365e-03 7.370e-03 2.365e-03 
*LOADS
*RC U418:D 3.486e-05
*END

*R_NET i_UART_DATA_TX\[41\] 4.730e-03
*DRIVER i_UART_DATA_TX\[41\]
*CELL NULL
*C2_R1_C1 2.365e-03 7.370e-03 2.365e-03 
*LOADS
*RC U417:D 3.486e-05
*END

*R_NET i_UART_DATA_TX\[40\] 4.730e-03
*DRIVER i_UART_DATA_TX\[40\]
*CELL NULL
*C2_R1_C1 2.365e-03 7.370e-03 2.365e-03 
*LOADS
*RC U416:D 3.486e-05
*END

*R_NET i_UART_DATA_TX\[39\] 4.670e-03
*DRIVER i_UART_DATA_TX\[39\]
*CELL NULL
*C2_R1_C1 2.335e-03 7.370e-03 2.335e-03 
*LOADS
*RC U415:F 3.442e-05
*END

*R_NET i_UART_DATA_TX\[38\] 4.730e-03
*DRIVER i_UART_DATA_TX\[38\]
*CELL NULL
*C2_R1_C1 2.365e-03 7.370e-03 2.365e-03 
*LOADS
*RC U414:D 3.486e-05
*END

*R_NET i_UART_DATA_TX\[37\] 4.730e-03
*DRIVER i_UART_DATA_TX\[37\]
*CELL NULL
*C2_R1_C1 2.365e-03 7.370e-03 2.365e-03 
*LOADS
*RC U413:D 3.486e-05
*END

*R_NET i_UART_DATA_TX\[36\] 4.730e-03
*DRIVER i_UART_DATA_TX\[36\]
*CELL NULL
*C2_R1_C1 2.365e-03 7.370e-03 2.365e-03 
*LOADS
*RC U412:D 3.486e-05
*END

*R_NET i_UART_DATA_TX\[35\] 4.730e-03
*DRIVER i_UART_DATA_TX\[35\]
*CELL NULL
*C2_R1_C1 2.365e-03 7.370e-03 2.365e-03 
*LOADS
*RC U411:D 3.486e-05
*END

*R_NET i_UART_DATA_TX\[34\] 4.730e-03
*DRIVER i_UART_DATA_TX\[34\]
*CELL NULL
*C2_R1_C1 2.365e-03 7.370e-03 2.365e-03 
*LOADS
*RC U410:D 3.486e-05
*END

*R_NET i_UART_DATA_TX\[33\] 4.730e-03
*DRIVER i_UART_DATA_TX\[33\]
*CELL NULL
*C2_R1_C1 2.365e-03 7.370e-03 2.365e-03 
*LOADS
*RC U409:D 3.486e-05
*END

*R_NET i_UART_DATA_TX\[32\] 4.730e-03
*DRIVER i_UART_DATA_TX\[32\]
*CELL NULL
*C2_R1_C1 2.365e-03 7.370e-03 2.365e-03 
*LOADS
*RC U408:D 3.486e-05
*END

*R_NET i_UART_DATA_TX\[31\] 4.730e-03
*DRIVER i_UART_DATA_TX\[31\]
*CELL NULL
*C2_R1_C1 2.365e-03 7.370e-03 2.365e-03 
*LOADS
*RC U407:D 3.486e-05
*END

*R_NET i_UART_DATA_TX\[30\] 4.730e-03
*DRIVER i_UART_DATA_TX\[30\]
*CELL NULL
*C2_R1_C1 2.365e-03 7.370e-03 2.365e-03 
*LOADS
*RC U406:D 3.486e-05
*END

*R_NET i_UART_DATA_TX\[29\] 4.730e-03
*DRIVER i_UART_DATA_TX\[29\]
*CELL NULL
*C2_R1_C1 2.365e-03 7.370e-03 2.365e-03 
*LOADS
*RC U405:D 3.486e-05
*END

*R_NET i_UART_DATA_TX\[28\] 4.730e-03
*DRIVER i_UART_DATA_TX\[28\]
*CELL NULL
*C2_R1_C1 2.365e-03 7.370e-03 2.365e-03 
*LOADS
*RC U404:D 3.486e-05
*END

*R_NET i_UART_DATA_TX\[27\] 4.730e-03
*DRIVER i_UART_DATA_TX\[27\]
*CELL NULL
*C2_R1_C1 2.365e-03 7.370e-03 2.365e-03 
*LOADS
*RC U403:D 3.486e-05
*END

*R_NET i_UART_DATA_TX\[26\] 4.730e-03
*DRIVER i_UART_DATA_TX\[26\]
*CELL NULL
*C2_R1_C1 2.365e-03 7.370e-03 2.365e-03 
*LOADS
*RC U402:D 3.486e-05
*END

*R_NET i_UART_DATA_TX\[25\] 4.730e-03
*DRIVER i_UART_DATA_TX\[25\]
*CELL NULL
*C2_R1_C1 2.365e-03 7.370e-03 2.365e-03 
*LOADS
*RC U401:D 3.486e-05
*END

*R_NET i_UART_DATA_TX\[24\] 4.730e-03
*DRIVER i_UART_DATA_TX\[24\]
*CELL NULL
*C2_R1_C1 2.365e-03 7.370e-03 2.365e-03 
*LOADS
*RC U400:D 3.486e-05
*END

*R_NET i_UART_DATA_TX\[23\] 4.730e-03
*DRIVER i_UART_DATA_TX\[23\]
*CELL NULL
*C2_R1_C1 2.365e-03 7.370e-03 2.365e-03 
*LOADS
*RC U399:D 3.486e-05
*END

*R_NET i_UART_DATA_TX\[22\] 4.730e-03
*DRIVER i_UART_DATA_TX\[22\]
*CELL NULL
*C2_R1_C1 2.365e-03 7.370e-03 2.365e-03 
*LOADS
*RC U398:D 3.486e-05
*END

*R_NET i_UART_DATA_TX\[21\] 4.730e-03
*DRIVER i_UART_DATA_TX\[21\]
*CELL NULL
*C2_R1_C1 2.365e-03 7.370e-03 2.365e-03 
*LOADS
*RC U397:D 3.486e-05
*END

*R_NET i_UART_DATA_TX\[20\] 4.730e-03
*DRIVER i_UART_DATA_TX\[20\]
*CELL NULL
*C2_R1_C1 2.365e-03 7.370e-03 2.365e-03 
*LOADS
*RC U396:D 3.486e-05
*END

*R_NET i_UART_DATA_TX\[19\] 4.730e-03
*DRIVER i_UART_DATA_TX\[19\]
*CELL NULL
*C2_R1_C1 2.365e-03 7.370e-03 2.365e-03 
*LOADS
*RC U395:D 3.486e-05
*END

*R_NET i_UART_DATA_TX\[18\] 4.730e-03
*DRIVER i_UART_DATA_TX\[18\]
*CELL NULL
*C2_R1_C1 2.365e-03 7.370e-03 2.365e-03 
*LOADS
*RC U394:D 3.486e-05
*END

*R_NET i_UART_DATA_TX\[17\] 4.730e-03
*DRIVER i_UART_DATA_TX\[17\]
*CELL NULL
*C2_R1_C1 2.365e-03 7.370e-03 2.365e-03 
*LOADS
*RC U393:D 3.486e-05
*END

*R_NET i_UART_DATA_TX\[16\] 4.730e-03
*DRIVER i_UART_DATA_TX\[16\]
*CELL NULL
*C2_R1_C1 2.365e-03 7.370e-03 2.365e-03 
*LOADS
*RC U392:D 3.486e-05
*END

*R_NET i_UART_DATA_TX\[15\] 4.730e-03
*DRIVER i_UART_DATA_TX\[15\]
*CELL NULL
*C2_R1_C1 2.365e-03 7.370e-03 2.365e-03 
*LOADS
*RC U391:D 3.486e-05
*END

*R_NET i_UART_DATA_TX\[14\] 4.730e-03
*DRIVER i_UART_DATA_TX\[14\]
*CELL NULL
*C2_R1_C1 2.365e-03 7.370e-03 2.365e-03 
*LOADS
*RC U390:D 3.486e-05
*END

*R_NET i_UART_DATA_TX\[13\] 4.730e-03
*DRIVER i_UART_DATA_TX\[13\]
*CELL NULL
*C2_R1_C1 2.365e-03 7.370e-03 2.365e-03 
*LOADS
*RC U389:D 3.486e-05
*END

*R_NET i_UART_DATA_TX\[12\] 4.730e-03
*DRIVER i_UART_DATA_TX\[12\]
*CELL NULL
*C2_R1_C1 2.365e-03 7.370e-03 2.365e-03 
*LOADS
*RC U388:D 3.486e-05
*END

*R_NET i_UART_DATA_TX\[11\] 4.730e-03
*DRIVER i_UART_DATA_TX\[11\]
*CELL NULL
*C2_R1_C1 2.365e-03 7.370e-03 2.365e-03 
*LOADS
*RC U387:D 3.486e-05
*END

*R_NET i_UART_DATA_TX\[10\] 4.730e-03
*DRIVER i_UART_DATA_TX\[10\]
*CELL NULL
*C2_R1_C1 2.365e-03 7.370e-03 2.365e-03 
*LOADS
*RC U386:D 3.486e-05
*END

*R_NET i_UART_DATA_TX\[9\] 4.730e-03
*DRIVER i_UART_DATA_TX\[9\]
*CELL NULL
*C2_R1_C1 2.365e-03 7.370e-03 2.365e-03 
*LOADS
*RC U385:D 3.486e-05
*END

*R_NET i_UART_DATA_TX\[8\] 4.730e-03
*DRIVER i_UART_DATA_TX\[8\]
*CELL NULL
*C2_R1_C1 2.365e-03 7.370e-03 2.365e-03 
*LOADS
*RC U384:D 3.486e-05
*END

*R_NET i_UART_DATA_TX\[7\] 4.670e-03
*DRIVER i_UART_DATA_TX\[7\]
*CELL NULL
*C2_R1_C1 2.335e-03 7.370e-03 2.335e-03 
*LOADS
*RC U334:D 3.442e-05
*END

*R_NET i_UART_DATA_TX\[6\] 4.670e-03
*DRIVER i_UART_DATA_TX\[6\]
*CELL NULL
*C2_R1_C1 2.335e-03 7.370e-03 2.335e-03 
*LOADS
*RC U335:D 3.442e-05
*END

*R_NET i_UART_DATA_TX\[5\] 4.670e-03
*DRIVER i_UART_DATA_TX\[5\]
*CELL NULL
*C2_R1_C1 2.335e-03 7.370e-03 2.335e-03 
*LOADS
*RC U325:D 3.442e-05
*END

*R_NET i_UART_DATA_TX\[4\] 4.670e-03
*DRIVER i_UART_DATA_TX\[4\]
*CELL NULL
*C2_R1_C1 2.335e-03 7.370e-03 2.335e-03 
*LOADS
*RC U326:D 3.442e-05
*END

*R_NET i_UART_DATA_TX\[3\] 4.670e-03
*DRIVER i_UART_DATA_TX\[3\]
*CELL NULL
*C2_R1_C1 2.335e-03 7.370e-03 2.335e-03 
*LOADS
*RC U331:D 3.442e-05
*END

*R_NET i_UART_DATA_TX\[2\] 4.670e-03
*DRIVER i_UART_DATA_TX\[2\]
*CELL NULL
*C2_R1_C1 2.335e-03 7.370e-03 2.335e-03 
*LOADS
*RC U327:D 3.442e-05
*END

*R_NET i_UART_DATA_TX\[1\] 4.670e-03
*DRIVER i_UART_DATA_TX\[1\]
*CELL NULL
*C2_R1_C1 2.335e-03 7.370e-03 2.335e-03 
*LOADS
*RC U328:D 3.442e-05
*END

*R_NET i_UART_DATA_TX\[0\] 4.670e-03
*DRIVER i_UART_DATA_TX\[0\]
*CELL NULL
*C2_R1_C1 2.335e-03 7.370e-03 2.335e-03 
*LOADS
*RC U330:D 3.442e-05
*END

*R_NET i_UART_DATA_TX_VALID 5.190e-03
*DRIVER i_UART_DATA_TX_VALID
*CELL NULL
*C2_R1_C1 2.595e-03 7.370e-03 2.595e-03 
*LOADS
*RC U305:B 3.825e-05
*END

*R_NET o_UART_DATA_TX_READY 6.980e-03
*DRIVER o_UART_DATA_TX_READY_reg:Q
*CELL fd2qd1_hd
*C2_R1_C1 3.490e-03 9.100e-03 3.490e-03 
*LOADS
*RC U337:C 6.352e-05
*RC o_UART_DATA_TX_READY 6.352e-05
*END

*R_NET o_UART_DATA_RX\[14\] 7.350e-03
*DRIVER o_UART_DATA_RX_reg_14_:Q
*CELL fd2qd1_hd
*C2_R1_C1 3.675e-03 9.100e-03 3.675e-03 
*LOADS
*RC U323:A 6.689e-05
*RC o_UART_DATA_RX\[14\] 6.689e-05
*END

*R_NET o_UART_DATA_RX\[13\] 7.100e-03
*DRIVER o_UART_DATA_RX_reg_13_:Q
*CELL fd2qd1_hd
*C2_R1_C1 3.550e-03 9.100e-03 3.550e-03 
*LOADS
*RC U447:B 6.461e-05
*RC o_UART_DATA_RX\[13\] 6.461e-05
*END

*R_NET o_UART_DATA_RX\[12\] 7.100e-03
*DRIVER o_UART_DATA_RX_reg_12_:Q
*CELL fd2qd1_hd
*C2_R1_C1 3.550e-03 9.100e-03 3.550e-03 
*LOADS
*RC U448:B 6.461e-05
*RC o_UART_DATA_RX\[12\] 6.461e-05
*END

*R_NET o_UART_DATA_RX\[11\] 7.040e-03
*DRIVER o_UART_DATA_RX_reg_11_:Q
*CELL fd2qd1_hd
*C2_R1_C1 3.520e-03 9.100e-03 3.520e-03 
*LOADS
*RC U336:D 6.406e-05
*RC o_UART_DATA_RX\[11\] 6.406e-05
*END

*R_NET o_UART_DATA_RX\[10\] 7.040e-03
*DRIVER o_UART_DATA_RX_reg_10_:Q
*CELL fd2qd1_hd
*C2_R1_C1 3.520e-03 9.100e-03 3.520e-03 
*LOADS
*RC U332:D 6.406e-05
*RC o_UART_DATA_RX\[10\] 6.406e-05
*END

*R_NET o_UART_DATA_RX\[9\] 7.100e-03
*DRIVER o_UART_DATA_RX_reg_9_:Q
*CELL fd2qd1_hd
*C2_R1_C1 3.550e-03 9.100e-03 3.550e-03 
*LOADS
*RC U449:B 6.461e-05
*RC o_UART_DATA_RX\[9\] 6.461e-05
*END

*R_NET o_UART_DATA_RX\[8\] 7.130e-03
*DRIVER o_UART_DATA_RX_reg_8_:Q
*CELL fd2qd1_hd
*C2_R1_C1 3.565e-03 9.100e-03 3.565e-03 
*LOADS
*RC U324:B 6.488e-05
*RC o_UART_DATA_RX\[8\] 6.488e-05
*END

*R_NET o_UART_DATA_RX\[7\] 7.050e-03
*DRIVER o_UART_DATA_RX_reg_7_:Q
*CELL fd2qd1_hd
*C2_R1_C1 3.525e-03 9.100e-03 3.525e-03 
*LOADS
*RC U343:C 6.416e-05
*RC o_UART_DATA_RX\[7\] 6.416e-05
*END

*R_NET o_UART_DATA_RX\[6\] 6.980e-03
*DRIVER o_UART_DATA_RX_reg_6_:Q
*CELL fd2qd1_hd
*C2_R1_C1 3.490e-03 9.100e-03 3.490e-03 
*LOADS
*RC U344:C 6.352e-05
*RC o_UART_DATA_RX\[6\] 6.352e-05
*END

*R_NET o_UART_DATA_RX\[5\] 6.980e-03
*DRIVER o_UART_DATA_RX_reg_5_:Q
*CELL fd2qd1_hd
*C2_R1_C1 3.490e-03 9.100e-03 3.490e-03 
*LOADS
*RC U341:C 6.352e-05
*RC o_UART_DATA_RX\[5\] 6.352e-05
*END

*R_NET o_UART_DATA_RX\[4\] 6.980e-03
*DRIVER o_UART_DATA_RX_reg_4_:Q
*CELL fd2qd1_hd
*C2_R1_C1 3.490e-03 9.100e-03 3.490e-03 
*LOADS
*RC U345:C 6.352e-05
*RC o_UART_DATA_RX\[4\] 6.352e-05
*END

*R_NET o_UART_DATA_RX\[3\] 6.980e-03
*DRIVER o_UART_DATA_RX_reg_3_:Q
*CELL fd2qd1_hd
*C2_R1_C1 3.490e-03 9.100e-03 3.490e-03 
*LOADS
*RC U342:C 6.352e-05
*RC o_UART_DATA_RX\[3\] 6.352e-05
*END

*R_NET o_UART_DATA_RX\[2\] 6.980e-03
*DRIVER o_UART_DATA_RX_reg_2_:Q
*CELL fd2qd1_hd
*C2_R1_C1 3.490e-03 9.100e-03 3.490e-03 
*LOADS
*RC U340:C 6.352e-05
*RC o_UART_DATA_RX\[2\] 6.352e-05
*END

*R_NET o_UART_DATA_RX\[1\] 6.980e-03
*DRIVER o_UART_DATA_RX_reg_1_:Q
*CELL fd2qd1_hd
*C2_R1_C1 3.490e-03 9.100e-03 3.490e-03 
*LOADS
*RC U339:C 6.352e-05
*RC o_UART_DATA_RX\[1\] 6.352e-05
*END

*R_NET o_UART_DATA_RX\[0\] 6.980e-03
*DRIVER o_UART_DATA_RX_reg_0_:Q
*CELL fd2qd1_hd
*C2_R1_C1 3.490e-03 9.100e-03 3.490e-03 
*LOADS
*RC U338:C 6.352e-05
*RC o_UART_DATA_RX\[0\] 6.352e-05
*END

*R_NET o_UART_DATA_RX_VALID 7.890e-03
*DRIVER o_UART_DATA_RX_VALID_reg:Q
*CELL fd2qd1_hd
*C2_R1_C1 3.945e-03 9.100e-03 3.945e-03 
*LOADS
*RC U450:A 7.180e-05
*RC o_UART_DATA_RX_VALID 7.180e-05
*END

*R_NET i_CORE_BUSY 1.668e-02
*DRIVER i_CORE_BUSY
*CELL NULL
*C2_R1_C1 8.340e-03 9.460e-03 8.340e-03 
*LOADS
*RC U358:A 1.578e-04
*RC U444:A 1.578e-04
*RC U445:A 1.578e-04
*END

*R_NET i_UART_RXD 4.620e-03
*DRIVER i_UART_RXD
*CELL NULL
*C2_R1_C1 2.310e-03 7.370e-03 2.310e-03 
*LOADS
*RC uart_rx/r_Rx_Data_R_reg:D 3.405e-05
*END

*R_NET o_UART_TXD 7.940e-03
*DRIVER uart_tx/o_Tx_Serial_reg:Q
*CELL fd1qd1_hd
*C2_R1_C1 3.970e-03 9.100e-03 3.970e-03 
*LOADS
*RC uart_tx/U86:C 7.225e-05
*RC o_UART_TXD 7.225e-05
*END

*R_NET i_CLK 1.022e+00
*DRIVER i_CLK
*CELL NULL
*C2_R1_C1 5.112e-01 0.000e+00 5.112e-01 
*LOADS
*RC uart_rx/r_Clock_Count_reg_1_:CK 0.000e+00
*RC uart_rx/r_Clock_Count_reg_0_:CK 0.000e+00
*RC uart_rx/r_Rx_Data_R_reg:CK 0.000e+00
*RC uart_rx/r_Clock_Count_reg_15_:CK 0.000e+00
*RC uart_rx/r_Clock_Count_reg_13_:CK 0.000e+00
*RC uart_rx/r_Clock_Count_reg_11_:CK 0.000e+00
*RC uart_rx/r_Clock_Count_reg_3_:CK 0.000e+00
*RC uart_rx/r_Clock_Count_reg_9_:CK 0.000e+00
*RC uart_rx/r_Rx_Byte_reg_7_:CK 0.000e+00
*RC uart_rx/r_Rx_Byte_reg_3_:CK 0.000e+00
*RC uart_rx/r_SM_Main_reg_2_:CK 0.000e+00
*RC uart_rx/r_Rx_DV_reg:CK 0.000e+00
*RC uart_rx/r_Rx_Byte_reg_1_:CK 0.000e+00
*RC uart_rx/r_Rx_Byte_reg_5_:CK 0.000e+00
*RC uart_rx/r_Rx_Byte_reg_6_:CK 0.000e+00
*RC uart_rx/r_Rx_Byte_reg_4_:CK 0.000e+00
*RC uart_rx/r_Rx_Byte_reg_2_:CK 0.000e+00
*RC uart_rx/r_Rx_Byte_reg_0_:CK 0.000e+00
*RC uart_rx/r_Bit_Index_reg_2_:CK 0.000e+00
*RC uart_rx/r_Clock_Count_reg_4_:CK 0.000e+00
*RC uart_rx/r_Clock_Count_reg_10_:CK 0.000e+00
*RC uart_rx/r_Clock_Count_reg_8_:CK 0.000e+00
*RC uart_rx/r_Clock_Count_reg_6_:CK 0.000e+00
*RC uart_rx/r_Clock_Count_reg_7_:CK 0.000e+00
*RC uart_rx/r_Clock_Count_reg_5_:CK 0.000e+00
*RC uart_rx/r_Clock_Count_reg_2_:CK 0.000e+00
*RC uart_rx/r_Clock_Count_reg_12_:CK 0.000e+00
*RC uart_rx/r_Clock_Count_reg_14_:CK 0.000e+00
*RC uart_rx/r_Bit_Index_reg_0_:CK 0.000e+00
*RC uart_rx/r_SM_Main_reg_1_:CK 0.000e+00
*RC uart_rx/r_SM_Main_reg_0_:CK 0.000e+00
*RC uart_rx/r_Bit_Index_reg_1_:CK 0.000e+00
*RC uart_rx/r_Rx_Data_reg:CK 0.000e+00
*RC r_lstate_reg_2_:CK 0.000e+00
*RC r_data_counter_reg_0_:CK 0.000e+00
*RC r_pstate_reg_0_:CK 0.000e+00
*RC r_pstate_reg_2_:CK 0.000e+00
*RC r_uart_data_tx_shift_reg_50_:CK 0.000e+00
*RC r_uart_data_tx_shift_reg_49_:CK 0.000e+00
*RC r_uart_data_tx_shift_reg_54_:CK 0.000e+00
*RC r_uart_data_tx_shift_reg_53_:CK 0.000e+00
*RC r_uart_data_tx_shift_reg_51_:CK 0.000e+00
*RC r_uart_data_tx_shift_reg_48_:CK 0.000e+00
*RC r_lstate_reg_3_:CK 0.000e+00
*RC r_data_counter_reg_2_:CK 0.000e+00
*RC o_UART_DATA_RX_reg_6_:CK 0.000e+00
*RC o_UART_DATA_RX_reg_5_:CK 0.000e+00
*RC o_UART_DATA_RX_reg_4_:CK 0.000e+00
*RC o_UART_DATA_RX_reg_3_:CK 0.000e+00
*RC o_UART_DATA_RX_reg_2_:CK 0.000e+00
*RC o_UART_DATA_RX_reg_1_:CK 0.000e+00
*RC o_UART_DATA_RX_reg_0_:CK 0.000e+00
*RC r_data_counter_reg_1_:CK 0.000e+00
*RC o_UART_DATA_RX_reg_7_:CK 0.000e+00
*RC o_UART_DATA_TX_READY_reg:CK 0.000e+00
*RC r_pstate_reg_3_:CK 0.000e+00
*RC r_pstate_reg_1_:CK 0.000e+00
*RC o_UART_DATA_RX_VALID_reg:CK 0.000e+00
*RC r_uart_data_tx_shift_reg_7_:CK 0.000e+00
*RC r_uart_data_tx_shift_reg_6_:CK 0.000e+00
*RC r_uart_data_tx_shift_reg_5_:CK 0.000e+00
*RC r_uart_data_tx_shift_reg_4_:CK 0.000e+00
*RC r_uart_data_tx_shift_reg_3_:CK 0.000e+00
*RC r_uart_data_tx_shift_reg_2_:CK 0.000e+00
*RC r_uart_data_tx_shift_reg_1_:CK 0.000e+00
*RC r_uart_data_tx_shift_reg_0_:CK 0.000e+00
*RC r_uart_data_tx_reg_7_:CK 0.000e+00
*RC r_uart_data_tx_reg_2_:CK 0.000e+00
*RC r_uart_data_tx_reg_1_:CK 0.000e+00
*RC r_uart_data_tx_reg_4_:CK 0.000e+00
*RC r_uart_data_tx_valid_reg:CK 0.000e+00
*RC o_UART_DATA_RX_reg_12_:CK 0.000e+00
*RC o_UART_DATA_RX_reg_9_:CK 0.000e+00
*RC o_UART_DATA_RX_reg_13_:CK 0.000e+00
*RC r_uart_data_tx_reg_0_:CK 0.000e+00
*RC r_uart_data_tx_reg_5_:CK 0.000e+00
*RC r_uart_data_tx_reg_3_:CK 0.000e+00
*RC r_uart_data_tx_reg_6_:CK 0.000e+00
*RC o_UART_DATA_RX_reg_14_:CK 0.000e+00
*RC o_UART_DATA_RX_reg_11_:CK 0.000e+00
*RC o_UART_DATA_RX_reg_10_:CK 0.000e+00
*RC o_UART_DATA_RX_reg_8_:CK 0.000e+00
*RC r_uart_data_tx_shift_reg_47_:CK 0.000e+00
*RC r_uart_data_tx_shift_reg_39_:CK 0.000e+00
*RC r_uart_data_tx_shift_reg_46_:CK 0.000e+00
*RC r_uart_data_tx_shift_reg_45_:CK 0.000e+00
*RC r_uart_data_tx_shift_reg_44_:CK 0.000e+00
*RC r_uart_data_tx_shift_reg_55_:CK 0.000e+00
*RC r_uart_data_tx_shift_reg_52_:CK 0.000e+00
*RC r_uart_data_tx_shift_reg_41_:CK 0.000e+00
*RC r_uart_data_tx_shift_reg_42_:CK 0.000e+00
*RC r_uart_data_tx_shift_reg_31_:CK 0.000e+00
*RC r_uart_data_tx_shift_reg_32_:CK 0.000e+00
*RC r_uart_data_tx_shift_reg_24_:CK 0.000e+00
*RC r_uart_data_tx_shift_reg_16_:CK 0.000e+00
*RC r_uart_data_tx_shift_reg_8_:CK 0.000e+00
*RC r_uart_data_tx_shift_reg_33_:CK 0.000e+00
*RC r_uart_data_tx_shift_reg_25_:CK 0.000e+00
*RC r_uart_data_tx_shift_reg_17_:CK 0.000e+00
*RC r_uart_data_tx_shift_reg_9_:CK 0.000e+00
*RC r_uart_data_tx_shift_reg_34_:CK 0.000e+00
*RC r_uart_data_tx_shift_reg_26_:CK 0.000e+00
*RC r_uart_data_tx_shift_reg_18_:CK 0.000e+00
*RC r_uart_data_tx_shift_reg_10_:CK 0.000e+00
*RC r_uart_data_tx_shift_reg_35_:CK 0.000e+00
*RC r_uart_data_tx_shift_reg_27_:CK 0.000e+00
*RC r_uart_data_tx_shift_reg_19_:CK 0.000e+00
*RC r_uart_data_tx_shift_reg_11_:CK 0.000e+00
*RC r_uart_data_tx_shift_reg_36_:CK 0.000e+00
*RC r_uart_data_tx_shift_reg_28_:CK 0.000e+00
*RC r_uart_data_tx_shift_reg_20_:CK 0.000e+00
*RC r_uart_data_tx_shift_reg_12_:CK 0.000e+00
*RC r_uart_data_tx_shift_reg_37_:CK 0.000e+00
*RC r_uart_data_tx_shift_reg_29_:CK 0.000e+00
*RC r_uart_data_tx_shift_reg_21_:CK 0.000e+00
*RC r_uart_data_tx_shift_reg_13_:CK 0.000e+00
*RC r_uart_data_tx_shift_reg_38_:CK 0.000e+00
*RC r_uart_data_tx_shift_reg_30_:CK 0.000e+00
*RC r_uart_data_tx_shift_reg_22_:CK 0.000e+00
*RC r_uart_data_tx_shift_reg_14_:CK 0.000e+00
*RC r_uart_data_tx_shift_reg_23_:CK 0.000e+00
*RC r_uart_data_tx_shift_reg_15_:CK 0.000e+00
*RC r_uart_data_tx_shift_reg_40_:CK 0.000e+00
*RC r_uart_data_tx_shift_reg_43_:CK 0.000e+00
*RC uart_tx/o_Tx_Serial_reg:CK 0.000e+00
*RC uart_tx/r_SM_Main_reg_1_:CK 0.000e+00
*RC uart_tx/r_Tx_Done_reg:CK 0.000e+00
*RC uart_tx/r_SM_Main_reg_0_:CK 0.000e+00
*RC uart_tx/r_Clock_Count_reg_5_:CK 0.000e+00
*RC uart_tx/r_Clock_Count_reg_3_:CK 0.000e+00
*RC uart_tx/r_Clock_Count_reg_4_:CK 0.000e+00
*RC uart_tx/r_Clock_Count_reg_0_:CK 0.000e+00
*RC uart_tx/r_Clock_Count_reg_7_:CK 0.000e+00
*RC uart_tx/r_Clock_Count_reg_6_:CK 0.000e+00
*RC uart_tx/r_Bit_Index_reg_0_:CK 0.000e+00
*RC uart_tx/r_Tx_Data_reg_7_:CK 0.000e+00
*RC uart_tx/r_Tx_Data_reg_6_:CK 0.000e+00
*RC uart_tx/r_Tx_Data_reg_5_:CK 0.000e+00
*RC uart_tx/r_Tx_Data_reg_4_:CK 0.000e+00
*RC uart_tx/r_Tx_Data_reg_3_:CK 0.000e+00
*RC uart_tx/r_Tx_Data_reg_2_:CK 0.000e+00
*RC uart_tx/r_Tx_Data_reg_1_:CK 0.000e+00
*RC uart_tx/r_Tx_Data_reg_0_:CK 0.000e+00
*RC uart_tx/r_Bit_Index_reg_2_:CK 0.000e+00
*RC uart_tx/r_Clock_Count_reg_2_:CK 0.000e+00
*RC uart_tx/r_Clock_Count_reg_1_:CK 0.000e+00
*RC uart_tx/r_SM_Main_reg_2_:CK 0.000e+00
*RC uart_tx/r_Bit_Index_reg_1_:CK 0.000e+00
*END

*R_NET r_uart_data_tx_valid 8.920e-03
*DRIVER r_uart_data_tx_valid_reg:Q
*CELL fd2qd1_hd
*C2_R1_C1 4.460e-03 9.100e-03 4.460e-03 
*LOADS
*RC U432:B 8.117e-05
*RC uart_tx/U119:B 8.117e-05
*END

*R_NET r_uart_data_tx\[7\] 8.670e-03
*DRIVER r_uart_data_tx_reg_7_:Q
*CELL fd2qd1_hd
*C2_R1_C1 4.335e-03 9.100e-03 4.335e-03 
*LOADS
*RC U320:D 7.890e-05
*RC uart_tx/U129:B 7.890e-05
*END

*R_NET r_uart_data_tx\[6\] 8.680e-03
*DRIVER r_uart_data_tx_reg_6_:Q
*CELL fd2qd1_hd
*C2_R1_C1 4.340e-03 9.100e-03 4.340e-03 
*LOADS
*RC U437:D 7.899e-05
*RC uart_tx/U132:B 7.899e-05
*END

*R_NET r_uart_data_tx\[5\] 8.680e-03
*DRIVER r_uart_data_tx_reg_5_:Q
*CELL fd2qd1_hd
*C2_R1_C1 4.340e-03 9.100e-03 4.340e-03 
*LOADS
*RC U436:D 7.899e-05
*RC uart_tx/U131:B 7.899e-05
*END

*R_NET r_uart_data_tx\[4\] 8.780e-03
*DRIVER r_uart_data_tx_reg_4_:Q
*CELL fd2qd1_hd
*C2_R1_C1 4.390e-03 9.100e-03 4.390e-03 
*LOADS
*RC U319:B 7.990e-05
*RC uart_tx/U136:B 7.990e-05
*END

*R_NET r_uart_data_tx\[3\] 8.680e-03
*DRIVER r_uart_data_tx_reg_3_:Q
*CELL fd2qd1_hd
*C2_R1_C1 4.340e-03 9.100e-03 4.340e-03 
*LOADS
*RC U435:D 7.899e-05
*RC uart_tx/U130:B 7.899e-05
*END

*R_NET r_uart_data_tx\[2\] 8.670e-03
*DRIVER r_uart_data_tx_reg_2_:Q
*CELL fd2qd1_hd
*C2_R1_C1 4.335e-03 9.100e-03 4.335e-03 
*LOADS
*RC U322:D 7.890e-05
*RC uart_tx/U135:B 7.890e-05
*END

*R_NET r_uart_data_tx\[1\] 8.670e-03
*DRIVER r_uart_data_tx_reg_1_:Q
*CELL fd2qd1_hd
*C2_R1_C1 4.335e-03 9.100e-03 4.335e-03 
*LOADS
*RC U321:D 7.890e-05
*RC uart_tx/U138:B 7.890e-05
*END

*R_NET r_uart_data_tx\[0\] 8.680e-03
*DRIVER r_uart_data_tx_reg_0_:Q
*CELL fd2qd1_hd
*C2_R1_C1 4.340e-03 9.100e-03 4.340e-03 
*LOADS
*RC U434:D 7.899e-05
*RC uart_tx/U133:B 7.899e-05
*END

*R_NET w_uart_data_tx_done 1.606e-02
*DRIVER uart_tx/r_Tx_Done_reg:Q
*CELL fd2qd1_hd
*C2_R1_C1 8.030e-03 9.460e-03 8.030e-03 
*LOADS
*RC uart_tx/U183:B 1.519e-04
*RC U314:AN 1.519e-04
*RC U367:A 1.519e-04
*END

*R_NET w_uart_data_rx_valid 2.343e-02
*DRIVER uart_rx/r_Rx_DV_reg:QN
*CELL fd2d1_hd
*C2_R1_C1 1.171e-02 1.094e-02 1.171e-02 
*LOADS
*RC U303:A 2.563e-04
*RC U305:A 2.563e-04
*RC U438:B 2.563e-04
*RC U457:A 2.563e-04
*END

*R_NET r_pstate\[3\] 1.051e-02
*DRIVER r_pstate_reg_3_:Q
*CELL fd2qd1_hd
*C2_R1_C1 5.255e-03 9.100e-03 5.255e-03 
*LOADS
*RC U317:A 9.564e-05
*RC U361:C 9.564e-05
*END

*R_NET r_pstate\[1\] 1.018e-02
*DRIVER r_pstate_reg_1_:Q
*CELL fd2qd1_hd
*C2_R1_C1 5.090e-03 9.100e-03 5.090e-03 
*LOADS
*RC U318:A 9.264e-05
*RC U372:A 9.264e-05
*END

*R_NET r_uart_data_tx_shift\[55\] 2.111e-02
*DRIVER r_uart_data_tx_shift_reg_55_:Q
*CELL fd2qd1_hd
*C2_R1_C1 1.055e-02 1.094e-02 1.055e-02 
*LOADS
*RC U320:A 2.309e-04
*RC U370:A 2.309e-04
*RC U377:A 2.309e-04
*RC U426:A 2.309e-04
*END

*R_NET r_uart_data_tx_shift\[52\] 1.559e-02
*DRIVER r_uart_data_tx_shift_reg_52_:Q
*CELL fd2qd1_hd
*C2_R1_C1 7.795e-03 9.460e-03 7.795e-03 
*LOADS
*RC U319:D 1.475e-04
*RC U369:A 1.475e-04
*RC U379:B 1.475e-04
*END

*R_NET r_uart_data_tx_shift\[47\] 9.710e-03
*DRIVER r_uart_data_tx_shift_reg_47_:Q
*CELL fd2qd1_hd
*C2_R1_C1 4.855e-03 9.100e-03 4.855e-03 
*LOADS
*RC U383:B 8.836e-05
*RC U425:B 8.836e-05
*END

*R_NET r_uart_data_tx_shift\[46\] 8.460e-03
*DRIVER r_uart_data_tx_shift_reg_46_:Q
*CELL fd2qd1_hd
*C2_R1_C1 4.230e-03 9.100e-03 4.230e-03 
*LOADS
*RC U422:B 7.699e-05
*RC U458:C 7.699e-05
*END

*R_NET r_uart_data_tx_shift\[45\] 8.460e-03
*DRIVER r_uart_data_tx_shift_reg_45_:Q
*CELL fd2qd1_hd
*C2_R1_C1 4.230e-03 9.100e-03 4.230e-03 
*LOADS
*RC U421:B 7.699e-05
*RC U460:C 7.699e-05
*END

*R_NET r_uart_data_tx_shift\[44\] 9.710e-03
*DRIVER r_uart_data_tx_shift_reg_44_:Q
*CELL fd2qd1_hd
*C2_R1_C1 4.855e-03 9.100e-03 4.855e-03 
*LOADS
*RC U420:B 8.836e-05
*RC U423:B 8.836e-05
*END

*R_NET r_uart_data_tx_shift\[43\] 8.460e-03
*DRIVER r_uart_data_tx_shift_reg_43_:Q
*CELL fd2qd1_hd
*C2_R1_C1 4.230e-03 9.100e-03 4.230e-03 
*LOADS
*RC U419:B 7.699e-05
*RC U462:C 7.699e-05
*END

*R_NET r_uart_data_tx_shift\[42\] 9.820e-03
*DRIVER r_uart_data_tx_shift_reg_42_:Q
*CELL fd2qd1_hd
*C2_R1_C1 4.910e-03 9.100e-03 4.910e-03 
*LOADS
*RC U418:B 8.936e-05
*RC U464:B 8.936e-05
*END

*R_NET r_uart_data_tx_shift\[41\] 9.820e-03
*DRIVER r_uart_data_tx_shift_reg_41_:Q
*CELL fd2qd1_hd
*C2_R1_C1 4.910e-03 9.100e-03 4.910e-03 
*LOADS
*RC U417:B 8.936e-05
*RC U465:B 8.936e-05
*END

*R_NET r_uart_data_tx_shift\[40\] 8.460e-03
*DRIVER r_uart_data_tx_shift_reg_40_:Q
*CELL fd2qd1_hd
*C2_R1_C1 4.230e-03 9.100e-03 4.230e-03 
*LOADS
*RC U416:B 7.699e-05
*RC U466:C 7.699e-05
*END

*R_NET r_uart_data_tx_shift\[39\] 8.560e-03
*DRIVER r_uart_data_tx_shift_reg_39_:Q
*CELL fd2qd1_hd
*C2_R1_C1 4.280e-03 9.100e-03 4.280e-03 
*LOADS
*RC U383:C 7.790e-05
*RC U415:B 7.790e-05
*END

*R_NET r_uart_data_tx_shift\[38\] 8.620e-03
*DRIVER r_uart_data_tx_shift_reg_38_:Q
*CELL fd2qd1_hd
*C2_R1_C1 4.310e-03 9.100e-03 4.310e-03 
*LOADS
*RC U414:B 7.844e-05
*RC U422:E 7.844e-05
*END

*R_NET r_uart_data_tx_shift\[37\] 8.620e-03
*DRIVER r_uart_data_tx_shift_reg_37_:Q
*CELL fd2qd1_hd
*C2_R1_C1 4.310e-03 9.100e-03 4.310e-03 
*LOADS
*RC U413:B 7.844e-05
*RC U421:E 7.844e-05
*END

*R_NET r_uart_data_tx_shift\[36\] 8.620e-03
*DRIVER r_uart_data_tx_shift_reg_36_:Q
*CELL fd2qd1_hd
*C2_R1_C1 4.310e-03 9.100e-03 4.310e-03 
*LOADS
*RC U412:B 7.844e-05
*RC U420:E 7.844e-05
*END

*R_NET r_uart_data_tx_shift\[35\] 8.620e-03
*DRIVER r_uart_data_tx_shift_reg_35_:Q
*CELL fd2qd1_hd
*C2_R1_C1 4.310e-03 9.100e-03 4.310e-03 
*LOADS
*RC U411:B 7.844e-05
*RC U419:E 7.844e-05
*END

*R_NET r_uart_data_tx_shift\[34\] 8.620e-03
*DRIVER r_uart_data_tx_shift_reg_34_:Q
*CELL fd2qd1_hd
*C2_R1_C1 4.310e-03 9.100e-03 4.310e-03 
*LOADS
*RC U410:B 7.844e-05
*RC U418:E 7.844e-05
*END

*R_NET r_uart_data_tx_shift\[33\] 8.620e-03
*DRIVER r_uart_data_tx_shift_reg_33_:Q
*CELL fd2qd1_hd
*C2_R1_C1 4.310e-03 9.100e-03 4.310e-03 
*LOADS
*RC U409:B 7.844e-05
*RC U417:E 7.844e-05
*END

*R_NET r_uart_data_tx_shift\[32\] 8.620e-03