*SPEF "IEEE 1481-1999"
*DESIGN "uart_controller"
<<<<<<< HEAD
*DATE "Wed May 13 09:57:50 2020"
=======
*DATE "Wed May 13 11:40:59 2020"
>>>>>>> jin
*VENDOR "SYNOPSYS INC"
*PROGRAM "Synopsys Design Compiler cmos"
*VERSION "F-2011.09-SP5-3"
*DESIGN_FLOW "SYNTHESIS"
*DIVIDER /
*DELIMITER :
*BUS_DELIMITER []
*T_UNIT 1.0 NS
*C_UNIT 1.0 PF
*R_UNIT 1.0 KOHM
*L_UNIT 1.0 HENRY

*PORTS

i_UART_DATA_TX\[55\] I *L 0.000e+00 *S 0.000e+00 0.000e+00 
i_UART_DATA_TX\[54\] I *L 0.000e+00 *S 0.000e+00 0.000e+00 
i_UART_DATA_TX\[53\] I *L 0.000e+00 *S 0.000e+00 0.000e+00 
i_UART_DATA_TX\[52\] I *L 0.000e+00 *S 0.000e+00 0.000e+00 
i_UART_DATA_TX\[51\] I *L 0.000e+00 *S 0.000e+00 0.000e+00 
i_UART_DATA_TX\[50\] I *L 0.000e+00 *S 0.000e+00 0.000e+00 
i_UART_DATA_TX\[49\] I *L 0.000e+00 *S 0.000e+00 0.000e+00 
i_UART_DATA_TX\[48\] I *L 0.000e+00 *S 0.000e+00 0.000e+00 
i_UART_DATA_TX\[47\] I *L 0.000e+00 *S 0.000e+00 0.000e+00 
i_UART_DATA_TX\[46\] I *L 0.000e+00 *S 0.000e+00 0.000e+00 
i_UART_DATA_TX\[45\] I *L 0.000e+00 *S 0.000e+00 0.000e+00 
i_UART_DATA_TX\[44\] I *L 0.000e+00 *S 0.000e+00 0.000e+00 
i_UART_DATA_TX\[43\] I *L 0.000e+00 *S 0.000e+00 0.000e+00 
i_UART_DATA_TX\[42\] I *L 0.000e+00 *S 0.000e+00 0.000e+00 
i_UART_DATA_TX\[41\] I *L 0.000e+00 *S 0.000e+00 0.000e+00 
i_UART_DATA_TX\[40\] I *L 0.000e+00 *S 0.000e+00 0.000e+00 
i_UART_DATA_TX\[39\] I *L 0.000e+00 *S 0.000e+00 0.000e+00 
i_UART_DATA_TX\[38\] I *L 0.000e+00 *S 0.000e+00 0.000e+00 
i_UART_DATA_TX\[37\] I *L 0.000e+00 *S 0.000e+00 0.000e+00 
i_UART_DATA_TX\[36\] I *L 0.000e+00 *S 0.000e+00 0.000e+00 
i_UART_DATA_TX\[35\] I *L 0.000e+00 *S 0.000e+00 0.000e+00 
i_UART_DATA_TX\[34\] I *L 0.000e+00 *S 0.000e+00 0.000e+00 
i_UART_DATA_TX\[33\] I *L 0.000e+00 *S 0.000e+00 0.000e+00 
i_UART_DATA_TX\[32\] I *L 0.000e+00 *S 0.000e+00 0.000e+00 
i_UART_DATA_TX\[31\] I *L 0.000e+00 *S 0.000e+00 0.000e+00 
i_UART_DATA_TX\[30\] I *L 0.000e+00 *S 0.000e+00 0.000e+00 
i_UART_DATA_TX\[29\] I *L 0.000e+00 *S 0.000e+00 0.000e+00 
i_UART_DATA_TX\[28\] I *L 0.000e+00 *S 0.000e+00 0.000e+00 
i_UART_DATA_TX\[27\] I *L 0.000e+00 *S 0.000e+00 0.000e+00 
i_UART_DATA_TX\[26\] I *L 0.000e+00 *S 0.000e+00 0.000e+00 
i_UART_DATA_TX\[25\] I *L 0.000e+00 *S 0.000e+00 0.000e+00 
i_UART_DATA_TX\[24\] I *L 0.000e+00 *S 0.000e+00 0.000e+00 
i_UART_DATA_TX\[23\] I *L 0.000e+00 *S 0.000e+00 0.000e+00 
i_UART_DATA_TX\[22\] I *L 0.000e+00 *S 0.000e+00 0.000e+00 
i_UART_DATA_TX\[21\] I *L 0.000e+00 *S 0.000e+00 0.000e+00 
i_UART_DATA_TX\[20\] I *L 0.000e+00 *S 0.000e+00 0.000e+00 
i_UART_DATA_TX\[19\] I *L 0.000e+00 *S 0.000e+00 0.000e+00 
i_UART_DATA_TX\[18\] I *L 0.000e+00 *S 0.000e+00 0.000e+00 
i_UART_DATA_TX\[17\] I *L 0.000e+00 *S 0.000e+00 0.000e+00 
i_UART_DATA_TX\[16\] I *L 0.000e+00 *S 0.000e+00 0.000e+00 
i_UART_DATA_TX\[15\] I *L 0.000e+00 *S 0.000e+00 0.000e+00 
i_UART_DATA_TX\[14\] I *L 0.000e+00 *S 0.000e+00 0.000e+00 
i_UART_DATA_TX\[13\] I *L 0.000e+00 *S 0.000e+00 0.000e+00 
i_UART_DATA_TX\[12\] I *L 0.000e+00 *S 0.000e+00 0.000e+00 
i_UART_DATA_TX\[11\] I *L 0.000e+00 *S 0.000e+00 0.000e+00 
i_UART_DATA_TX\[10\] I *L 0.000e+00 *S 0.000e+00 0.000e+00 
i_UART_DATA_TX\[9\] I *L 0.000e+00 *S 0.000e+00 0.000e+00 
i_UART_DATA_TX\[8\] I *L 0.000e+00 *S 0.000e+00 0.000e+00 
i_UART_DATA_TX\[7\] I *L 0.000e+00 *S 0.000e+00 0.000e+00 
i_UART_DATA_TX\[6\] I *L 0.000e+00 *S 0.000e+00 0.000e+00 
i_UART_DATA_TX\[5\] I *L 0.000e+00 *S 0.000e+00 0.000e+00 
i_UART_DATA_TX\[4\] I *L 0.000e+00 *S 0.000e+00 0.000e+00 
i_UART_DATA_TX\[3\] I *L 0.000e+00 *S 0.000e+00 0.000e+00 
i_UART_DATA_TX\[2\] I *L 0.000e+00 *S 0.000e+00 0.000e+00 
i_UART_DATA_TX\[1\] I *L 0.000e+00 *S 0.000e+00 0.000e+00 
i_UART_DATA_TX\[0\] I *L 0.000e+00 *S 0.000e+00 0.000e+00 
i_UART_DATA_TX_VALID I *L 0.000e+00 *S 0.000e+00 0.000e+00 
o_UART_DATA_TX_READY O *L 0.000e+00 *S 6.858e-02 1.002e-01 
o_UART_DATA_RX\[15\] O *L 0.000e+00 *S 3.617e-02 2.724e-02 
o_UART_DATA_RX\[14\] O *L 0.000e+00 *S 7.095e-02 1.032e-01 
o_UART_DATA_RX\[13\] O *L 0.000e+00 *S 7.016e-02 1.022e-01 
o_UART_DATA_RX\[12\] O *L 0.000e+00 *S 6.822e-02 9.974e-02 
o_UART_DATA_RX\[11\] O *L 0.000e+00 *S 6.963e-02 1.015e-01 
o_UART_DATA_RX\[10\] O *L 0.000e+00 *S 6.963e-02 1.015e-01 
o_UART_DATA_RX\[9\] O *L 0.000e+00 *S 6.822e-02 9.974e-02 
o_UART_DATA_RX\[8\] O *L 0.000e+00 *S 7.043e-02 1.025e-01 
o_UART_DATA_RX\[7\] O *L 0.000e+00 *S 6.972e-02 1.016e-01 
o_UART_DATA_RX\[6\] O *L 0.000e+00 *S 6.910e-02 1.009e-01 
o_UART_DATA_RX\[5\] O *L 0.000e+00 *S 6.910e-02 1.009e-01 
o_UART_DATA_RX\[4\] O *L 0.000e+00 *S 6.910e-02 1.009e-01 
o_UART_DATA_RX\[3\] O *L 0.000e+00 *S 6.910e-02 1.009e-01 
o_UART_DATA_RX\[2\] O *L 0.000e+00 *S 6.910e-02 1.009e-01 
o_UART_DATA_RX\[1\] O *L 0.000e+00 *S 6.910e-02 1.009e-01 
o_UART_DATA_RX\[0\] O *L 0.000e+00 *S 6.910e-02 1.009e-01 
o_UART_DATA_RX_VALID O *L 0.000e+00 *S 7.712e-02 1.109e-01 
i_CORE_BUSY I *L 0.000e+00 *S 0.000e+00 0.000e+00 
i_UART_RXD I *L 0.000e+00 *S 0.000e+00 0.000e+00 
o_UART_TXD O *L 0.000e+00 *S 7.757e-02 7.245e-02 
i_CLK I *L 0.000e+00 *S 0.000e+00 0.000e+00 
i_RST I *L 0.000e+00 *S 0.000e+00 0.000e+00 

*R_NET i_UART_DATA_TX\[55\] 5.910e-03
*DRIVER i_UART_DATA_TX\[55\]
*CELL NULL
*C2_R1_C1 2.955e-03 7.370e-03 2.955e-03 
*LOADS
*RC U496:B 4.356e-05
*END

*R_NET i_UART_DATA_TX\[54\] 4.730e-03
*DRIVER i_UART_DATA_TX\[54\]
*CELL NULL
*C2_R1_C1 2.365e-03 7.370e-03 2.365e-03 
*LOADS
*RC U312:A 3.486e-05
*END

*R_NET i_UART_DATA_TX\[53\] 4.730e-03
*DRIVER i_UART_DATA_TX\[53\]
*CELL NULL
*C2_R1_C1 2.365e-03 7.370e-03 2.365e-03 
*LOADS
*RC U311:A 3.486e-05
*END

*R_NET i_UART_DATA_TX\[52\] 5.900e-03
*DRIVER i_UART_DATA_TX\[52\]
*CELL NULL
*C2_R1_C1 2.950e-03 7.370e-03 2.950e-03 
*LOADS
*RC U462:D 4.348e-05
*END

*R_NET i_UART_DATA_TX\[51\] 5.910e-03
*DRIVER i_UART_DATA_TX\[51\]
*CELL NULL
*C2_R1_C1 2.955e-03 7.370e-03 2.955e-03 
*LOADS
*RC U500:B 4.356e-05
*END

*R_NET i_UART_DATA_TX\[50\] 4.730e-03
*DRIVER i_UART_DATA_TX\[50\]
*CELL NULL
*C2_R1_C1 2.365e-03 7.370e-03 2.365e-03 
*LOADS
*RC U310:A 3.486e-05
*END

*R_NET i_UART_DATA_TX\[49\] 5.900e-03
*DRIVER i_UART_DATA_TX\[49\]
*CELL NULL
*C2_R1_C1 2.950e-03 7.370e-03 2.950e-03 
*LOADS
*RC U461:D 4.348e-05
*END

*R_NET i_UART_DATA_TX\[48\] 5.910e-03
*DRIVER i_UART_DATA_TX\[48\]
*CELL NULL
*C2_R1_C1 2.955e-03 7.370e-03 2.955e-03 
*LOADS
*RC U503:B 4.356e-05
*END

*R_NET i_UART_DATA_TX\[47\] 5.900e-03
*DRIVER i_UART_DATA_TX\[47\]
*CELL NULL
*C2_R1_C1 2.950e-03 7.370e-03 2.950e-03 
*LOADS
*RC U400:D 4.348e-05
*END

*R_NET i_UART_DATA_TX\[46\] 4.730e-03
*DRIVER i_UART_DATA_TX\[46\]
*CELL NULL
*C2_R1_C1 2.365e-03 7.370e-03 2.365e-03 
*LOADS
*RC U460:D 3.486e-05
*END

*R_NET i_UART_DATA_TX\[45\] 4.730e-03
*DRIVER i_UART_DATA_TX\[45\]
*CELL NULL
*C2_R1_C1 2.365e-03 7.370e-03 2.365e-03 
*LOADS
*RC U459:D 3.486e-05
*END

*R_NET i_UART_DATA_TX\[44\] 4.730e-03
*DRIVER i_UART_DATA_TX\[44\]
*CELL NULL
*C2_R1_C1 2.365e-03 7.370e-03 2.365e-03 
*LOADS
*RC U458:D 3.486e-05
*END

*R_NET i_UART_DATA_TX\[43\] 4.730e-03
*DRIVER i_UART_DATA_TX\[43\]
*CELL NULL
*C2_R1_C1 2.365e-03 7.370e-03 2.365e-03 
*LOADS
*RC U457:D 3.486e-05
*END

*R_NET i_UART_DATA_TX\[42\] 4.730e-03
*DRIVER i_UART_DATA_TX\[42\]
*CELL NULL
*C2_R1_C1 2.365e-03 7.370e-03 2.365e-03 
*LOADS
*RC U456:D 3.486e-05
*END

*R_NET i_UART_DATA_TX\[41\] 4.730e-03
*DRIVER i_UART_DATA_TX\[41\]
*CELL NULL
*C2_R1_C1 2.365e-03 7.370e-03 2.365e-03 
*LOADS
*RC U455:D 3.486e-05
*END

*R_NET i_UART_DATA_TX\[40\] 4.730e-03
*DRIVER i_UART_DATA_TX\[40\]
*CELL NULL
*C2_R1_C1 2.365e-03 7.370e-03 2.365e-03 
*LOADS
*RC U454:D 3.486e-05
*END

*R_NET i_UART_DATA_TX\[39\] 5.900e-03
*DRIVER i_UART_DATA_TX\[39\]
*CELL NULL
*C2_R1_C1 2.950e-03 7.370e-03 2.950e-03 
*LOADS
*RC U452:D 4.348e-05
*END

*R_NET i_UART_DATA_TX\[38\] 5.900e-03
*DRIVER i_UART_DATA_TX\[38\]
*CELL NULL
*C2_R1_C1 2.950e-03 7.370e-03 2.950e-03 
*LOADS
*RC U451:D 4.348e-05
*END

*R_NET i_UART_DATA_TX\[37\] 5.900e-03
*DRIVER i_UART_DATA_TX\[37\]
*CELL NULL
*C2_R1_C1 2.950e-03 7.370e-03 2.950e-03 
*LOADS
*RC U450:D 4.348e-05
*END

*R_NET i_UART_DATA_TX\[36\] 5.900e-03
*DRIVER i_UART_DATA_TX\[36\]
*CELL NULL
*C2_R1_C1 2.950e-03 7.370e-03 2.950e-03 
*LOADS
*RC U449:D 4.348e-05
*END

*R_NET i_UART_DATA_TX\[35\] 5.900e-03
*DRIVER i_UART_DATA_TX\[35\]
*CELL NULL
*C2_R1_C1 2.950e-03 7.370e-03 2.950e-03 
*LOADS
*RC U448:D 4.348e-05
*END

*R_NET i_UART_DATA_TX\[34\] 5.900e-03
*DRIVER i_UART_DATA_TX\[34\]
*CELL NULL
*C2_R1_C1 2.950e-03 7.370e-03 2.950e-03 
*LOADS
*RC U447:D 4.348e-05
*END

*R_NET i_UART_DATA_TX\[33\] 5.900e-03
*DRIVER i_UART_DATA_TX\[33\]
*CELL NULL
*C2_R1_C1 2.950e-03 7.370e-03 2.950e-03 
*LOADS
*RC U446:D 4.348e-05
*END

*R_NET i_UART_DATA_TX\[32\] 5.900e-03
*DRIVER i_UART_DATA_TX\[32\]
*CELL NULL
*C2_R1_C1 2.950e-03 7.370e-03 2.950e-03 
*LOADS
*RC U445:D 4.348e-05
*END

*R_NET i_UART_DATA_TX\[31\] 5.900e-03
*DRIVER i_UART_DATA_TX\[31\]
*CELL NULL
*C2_R1_C1 2.950e-03 7.370e-03 2.950e-03 
*LOADS
*RC U444:D 4.348e-05
*END

*R_NET i_UART_DATA_TX\[30\] 5.900e-03
*DRIVER i_UART_DATA_TX\[30\]
*CELL NULL
*C2_R1_C1 2.950e-03 7.370e-03 2.950e-03 
*LOADS
*RC U442:D 4.348e-05
*END

*R_NET i_UART_DATA_TX\[29\] 5.900e-03
*DRIVER i_UART_DATA_TX\[29\]
*CELL NULL
*C2_R1_C1 2.950e-03 7.370e-03 2.950e-03 
*LOADS
*RC U440:D 4.348e-05
*END

*R_NET i_UART_DATA_TX\[28\] 5.900e-03
*DRIVER i_UART_DATA_TX\[28\]
*CELL NULL
*C2_R1_C1 2.950e-03 7.370e-03 2.950e-03 
*LOADS
*RC U438:D 4.348e-05
*END

*R_NET i_UART_DATA_TX\[27\] 5.900e-03
*DRIVER i_UART_DATA_TX\[27\]
*CELL NULL
*C2_R1_C1 2.950e-03 7.370e-03 2.950e-03 
*LOADS
*RC U436:D 4.348e-05
*END

*R_NET i_UART_DATA_TX\[26\] 5.900e-03
*DRIVER i_UART_DATA_TX\[26\]
*CELL NULL
*C2_R1_C1 2.950e-03 7.370e-03 2.950e-03 
*LOADS
*RC U434:D 4.348e-05
*END

*R_NET i_UART_DATA_TX\[25\] 5.900e-03
*DRIVER i_UART_DATA_TX\[25\]
*CELL NULL
*C2_R1_C1 2.950e-03 7.370e-03 2.950e-03 
*LOADS
*RC U432:D 4.348e-05
*END

*R_NET i_UART_DATA_TX\[24\] 5.900e-03
*DRIVER i_UART_DATA_TX\[24\]
*CELL NULL
*C2_R1_C1 2.950e-03 7.370e-03 2.950e-03 
*LOADS
*RC U430:D 4.348e-05
*END

*R_NET i_UART_DATA_TX\[23\] 5.900e-03
*DRIVER i_UART_DATA_TX\[23\]
*CELL NULL
*C2_R1_C1 2.950e-03 7.370e-03 2.950e-03 
*LOADS
*RC U428:D 4.348e-05
*END

*R_NET i_UART_DATA_TX\[22\] 5.900e-03
*DRIVER i_UART_DATA_TX\[22\]
*CELL NULL
*C2_R1_C1 2.950e-03 7.370e-03 2.950e-03 
*LOADS
*RC U426:D 4.348e-05
*END

*R_NET i_UART_DATA_TX\[21\] 5.900e-03
*DRIVER i_UART_DATA_TX\[21\]
*CELL NULL
*C2_R1_C1 2.950e-03 7.370e-03 2.950e-03 
*LOADS
*RC U424:D 4.348e-05
*END

*R_NET i_UART_DATA_TX\[20\] 5.900e-03
*DRIVER i_UART_DATA_TX\[20\]
*CELL NULL
*C2_R1_C1 2.950e-03 7.370e-03 2.950e-03 
*LOADS
*RC U422:D 4.348e-05
*END

*R_NET i_UART_DATA_TX\[19\] 5.900e-03
*DRIVER i_UART_DATA_TX\[19\]
*CELL NULL
*C2_R1_C1 2.950e-03 7.370e-03 2.950e-03 
*LOADS
*RC U420:D 4.348e-05
*END

*R_NET i_UART_DATA_TX\[18\] 5.900e-03
*DRIVER i_UART_DATA_TX\[18\]
*CELL NULL
*C2_R1_C1 2.950e-03 7.370e-03 2.950e-03 
*LOADS
*RC U418:D 4.348e-05
*END

*R_NET i_UART_DATA_TX\[17\] 5.900e-03
*DRIVER i_UART_DATA_TX\[17\]
*CELL NULL
*C2_R1_C1 2.950e-03 7.370e-03 2.950e-03 
*LOADS
*RC U416:D 4.348e-05
*END

*R_NET i_UART_DATA_TX\[16\] 5.900e-03
*DRIVER i_UART_DATA_TX\[16\]
*CELL NULL
*C2_R1_C1 2.950e-03 7.370e-03 2.950e-03 
*LOADS
*RC U414:D 4.348e-05
*END

*R_NET i_UART_DATA_TX\[15\] 5.900e-03
*DRIVER i_UART_DATA_TX\[15\]
*CELL NULL
*C2_R1_C1 2.950e-03 7.370e-03 2.950e-03 
*LOADS
*RC U412:D 4.348e-05
*END

*R_NET i_UART_DATA_TX\[14\] 5.900e-03
*DRIVER i_UART_DATA_TX\[14\]
*CELL NULL
*C2_R1_C1 2.950e-03 7.370e-03 2.950e-03 
*LOADS
*RC U410:D 4.348e-05
*END

*R_NET i_UART_DATA_TX\[13\] 5.900e-03
*DRIVER i_UART_DATA_TX\[13\]
*CELL NULL
*C2_R1_C1 2.950e-03 7.370e-03 2.950e-03 
*LOADS
*RC U408:D 4.348e-05
*END

*R_NET i_UART_DATA_TX\[12\] 5.900e-03
*DRIVER i_UART_DATA_TX\[12\]
*CELL NULL
*C2_R1_C1 2.950e-03 7.370e-03 2.950e-03 
*LOADS
*RC U406:D 4.348e-05
*END

*R_NET i_UART_DATA_TX\[11\] 5.900e-03
*DRIVER i_UART_DATA_TX\[11\]
*CELL NULL
*C2_R1_C1 2.950e-03 7.370e-03 2.950e-03 
*LOADS
*RC U405:D 4.348e-05
*END

*R_NET i_UART_DATA_TX\[10\] 5.900e-03
*DRIVER i_UART_DATA_TX\[10\]
*CELL NULL
*C2_R1_C1 2.950e-03 7.370e-03 2.950e-03 
*LOADS
*RC U404:D 4.348e-05
*END

*R_NET i_UART_DATA_TX\[9\] 5.900e-03
*DRIVER i_UART_DATA_TX\[9\]
*CELL NULL
*C2_R1_C1 2.950e-03 7.370e-03 2.950e-03 
*LOADS
*RC U403:D 4.348e-05
*END

*R_NET i_UART_DATA_TX\[8\] 5.900e-03
*DRIVER i_UART_DATA_TX\[8\]
*CELL NULL
*C2_R1_C1 2.950e-03 7.370e-03 2.950e-03 
*LOADS
*RC U402:D 4.348e-05
*END

*R_NET i_UART_DATA_TX\[7\] 4.670e-03
*DRIVER i_UART_DATA_TX\[7\]
*CELL NULL
*C2_R1_C1 2.335e-03 7.370e-03 2.335e-03 
*LOADS
*RC U321:D 3.442e-05
*END

*R_NET i_UART_DATA_TX\[6\] 4.670e-03
*DRIVER i_UART_DATA_TX\[6\]
*CELL NULL
*C2_R1_C1 2.335e-03 7.370e-03 2.335e-03 
*LOADS
*RC U323:D 3.442e-05
*END

*R_NET i_UART_DATA_TX\[5\] 4.670e-03
*DRIVER i_UART_DATA_TX\[5\]
*CELL NULL
*C2_R1_C1 2.335e-03 7.370e-03 2.335e-03 
*LOADS
*RC U324:D 3.442e-05
*END

*R_NET i_UART_DATA_TX\[4\] 4.670e-03
*DRIVER i_UART_DATA_TX\[4\]
*CELL NULL
*C2_R1_C1 2.335e-03 7.370e-03 2.335e-03 
*LOADS
*RC U327:D 3.442e-05
*END

*R_NET i_UART_DATA_TX\[3\] 4.670e-03
*DRIVER i_UART_DATA_TX\[3\]
*CELL NULL
*C2_R1_C1 2.335e-03 7.370e-03 2.335e-03 
*LOADS
*RC U326:D 3.442e-05
*END

*R_NET i_UART_DATA_TX\[2\] 4.670e-03
*DRIVER i_UART_DATA_TX\[2\]
*CELL NULL
*C2_R1_C1 2.335e-03 7.370e-03 2.335e-03 
*LOADS
*RC U320:D 3.442e-05
*END

*R_NET i_UART_DATA_TX\[1\] 4.670e-03
*DRIVER i_UART_DATA_TX\[1\]
*CELL NULL
*C2_R1_C1 2.335e-03 7.370e-03 2.335e-03 
*LOADS
*RC U322:D 3.442e-05
*END

*R_NET i_UART_DATA_TX\[0\] 4.670e-03
*DRIVER i_UART_DATA_TX\[0\]
*CELL NULL
*C2_R1_C1 2.335e-03 7.370e-03 2.335e-03 
*LOADS
*RC U325:D 3.442e-05
*END

*R_NET i_UART_DATA_TX_VALID 5.200e-03
*DRIVER i_UART_DATA_TX_VALID
*CELL NULL
*C2_R1_C1 2.600e-03 7.370e-03 2.600e-03 
*LOADS
*RC U304:A 3.832e-05
*END

*R_NET o_UART_DATA_TX_READY 6.920e-03
*DRIVER o_UART_DATA_TX_READY_reg:Q
*CELL fd2qd1_hd
*C2_R1_C1 3.460e-03 9.100e-03 3.460e-03 
*LOADS
*RC U309:C 6.297e-05
*RC o_UART_DATA_TX_READY 6.297e-05
*END

*R_NET o_UART_DATA_RX\[14\] 7.190e-03
*DRIVER o_UART_DATA_RX_reg_14_:Q
*CELL fd2qd1_hd
*C2_R1_C1 3.595e-03 9.100e-03 3.595e-03 
*LOADS
*RC U376:AN 6.543e-05
*RC o_UART_DATA_RX\[14\] 6.543e-05
*END

*R_NET o_UART_DATA_RX\[13\] 7.100e-03
*DRIVER o_UART_DATA_RX_reg_13_:Q
*CELL fd2qd1_hd
*C2_R1_C1 3.550e-03 9.100e-03 3.550e-03 
*LOADS
*RC U486:B 6.461e-05
*RC o_UART_DATA_RX\[13\] 6.461e-05
*END

*R_NET o_UART_DATA_RX\[12\] 6.880e-03
*DRIVER o_UART_DATA_RX_reg_12_:Q
*CELL fd2qd1_hd
*C2_R1_C1 3.440e-03 9.100e-03 3.440e-03 
*LOADS
*RC U487:B 6.261e-05
*RC o_UART_DATA_RX\[12\] 6.261e-05
*END

*R_NET o_UART_DATA_RX\[11\] 7.040e-03
*DRIVER o_UART_DATA_RX_reg_11_:Q
*CELL fd2qd1_hd
*C2_R1_C1 3.520e-03 9.100e-03 3.520e-03 
*LOADS
*RC U328:D 6.406e-05
*RC o_UART_DATA_RX\[11\] 6.406e-05
*END

*R_NET o_UART_DATA_RX\[10\] 7.040e-03
*DRIVER o_UART_DATA_RX_reg_10_:Q
*CELL fd2qd1_hd
*C2_R1_C1 3.520e-03 9.100e-03 3.520e-03 
*LOADS
*RC U329:D 6.406e-05
*RC o_UART_DATA_RX\[10\] 6.406e-05
*END

*R_NET o_UART_DATA_RX\[9\] 6.880e-03
*DRIVER o_UART_DATA_RX_reg_9_:Q
*CELL fd2qd1_hd
*C2_R1_C1 3.440e-03 9.100e-03 3.440e-03 
*LOADS
*RC U488:B 6.261e-05
*RC o_UART_DATA_RX\[9\] 6.261e-05
*END

*R_NET o_UART_DATA_RX\[8\] 7.130e-03
*DRIVER o_UART_DATA_RX_reg_8_:Q
*CELL fd2qd1_hd
*C2_R1_C1 3.565e-03 9.100e-03 3.565e-03 
*LOADS
*RC U319:B 6.488e-05
*RC o_UART_DATA_RX\[8\] 6.488e-05
*END

*R_NET o_UART_DATA_RX\[7\] 7.050e-03
*DRIVER o_UART_DATA_RX_reg_7_:Q
*CELL fd2qd1_hd
*C2_R1_C1 3.525e-03 9.100e-03 3.525e-03 
*LOADS
*RC U334:C 6.416e-05
*RC o_UART_DATA_RX\[7\] 6.416e-05
*END

*R_NET o_UART_DATA_RX\[6\] 6.980e-03
*DRIVER o_UART_DATA_RX_reg_6_:Q
*CELL fd2qd1_hd
*C2_R1_C1 3.490e-03 9.100e-03 3.490e-03 
*LOADS
*RC U332:C 6.352e-05
*RC o_UART_DATA_RX\[6\] 6.352e-05
*END

*R_NET o_UART_DATA_RX\[5\] 6.980e-03
*DRIVER o_UART_DATA_RX_reg_5_:Q
*CELL fd2qd1_hd
*C2_R1_C1 3.490e-03 9.100e-03 3.490e-03 
*LOADS
*RC U336:C 6.352e-05
*RC o_UART_DATA_RX\[5\] 6.352e-05
*END

*R_NET o_UART_DATA_RX\[4\] 6.980e-03
*DRIVER o_UART_DATA_RX_reg_4_:Q
*CELL fd2qd1_hd
*C2_R1_C1 3.490e-03 9.100e-03 3.490e-03 
*LOADS
*RC U333:C 6.352e-05
*RC o_UART_DATA_RX\[4\] 6.352e-05
*END

*R_NET o_UART_DATA_RX\[3\] 6.980e-03
*DRIVER o_UART_DATA_RX_reg_3_:Q
*CELL fd2qd1_hd
*C2_R1_C1 3.490e-03 9.100e-03 3.490e-03 
*LOADS
*RC U331:C 6.352e-05
*RC o_UART_DATA_RX\[3\] 6.352e-05
*END

*R_NET o_UART_DATA_RX\[2\] 6.980e-03
*DRIVER o_UART_DATA_RX_reg_2_:Q
*CELL fd2qd1_hd
*C2_R1_C1 3.490e-03 9.100e-03 3.490e-03 
*LOADS
*RC U335:C 6.352e-05
*RC o_UART_DATA_RX\[2\] 6.352e-05
*END

*R_NET o_UART_DATA_RX\[1\] 6.980e-03
*DRIVER o_UART_DATA_RX_reg_1_:Q
*CELL fd2qd1_hd
*C2_R1_C1 3.490e-03 9.100e-03 3.490e-03 
*LOADS
*RC U338:C 6.352e-05
*RC o_UART_DATA_RX\[1\] 6.352e-05
*END

*R_NET o_UART_DATA_RX\[0\] 6.980e-03
*DRIVER o_UART_DATA_RX_reg_0_:Q
*CELL fd2qd1_hd
*C2_R1_C1 3.490e-03 9.100e-03 3.490e-03 
*LOADS
*RC U339:C 6.352e-05
*RC o_UART_DATA_RX\[0\] 6.352e-05
*END

*R_NET o_UART_DATA_RX_VALID 7.890e-03
*DRIVER o_UART_DATA_RX_VALID_reg:Q
*CELL fd2qd1_hd
*C2_R1_C1 3.945e-03 9.100e-03 3.945e-03 
*LOADS
*RC U490:A 7.180e-05
*RC o_UART_DATA_RX_VALID 7.180e-05
*END

*R_NET i_CORE_BUSY 1.668e-02
*DRIVER i_CORE_BUSY
*CELL NULL
*C2_R1_C1 8.340e-03 9.460e-03 8.340e-03 
*LOADS
*RC U351:A 1.578e-04
*RC U482:A 1.578e-04
*RC U483:A 1.578e-04
*END

*R_NET i_UART_RXD 4.620e-03
*DRIVER i_UART_RXD
*CELL NULL
*C2_R1_C1 2.310e-03 7.370e-03 2.310e-03 
*LOADS
*RC uart_rx/r_Rx_Data_R_reg:D 3.405e-05
*END

*R_NET o_UART_TXD 7.940e-03
*DRIVER uart_tx/o_Tx_Serial_reg:Q
*CELL fd1qd1_hd
*C2_R1_C1 3.970e-03 9.100e-03 3.970e-03 
*LOADS
*RC uart_tx/U86:C 7.225e-05
*RC o_UART_TXD 7.225e-05
*END

*R_NET i_CLK 1.051e+00
*DRIVER i_CLK
*CELL NULL
*C2_R1_C1 5.256e-01 0.000e+00 5.256e-01 
*LOADS
*RC uart_rx/r_Clock_Count_reg_1_:CK 0.000e+00
*RC uart_rx/r_Rx_Data_reg:CK 0.000e+00
*RC uart_rx/r_Rx_Data_R_reg:CK 0.000e+00
*RC uart_rx/r_Clock_Count_reg_15_:CK 0.000e+00
*RC uart_rx/r_Clock_Count_reg_14_:CK 0.000e+00
*RC uart_rx/r_Clock_Count_reg_13_:CK 0.000e+00
*RC uart_rx/r_Clock_Count_reg_11_:CK 0.000e+00
*RC uart_rx/r_Clock_Count_reg_12_:CK 0.000e+00
*RC uart_rx/r_Clock_Count_reg_2_:CK 0.000e+00
*RC uart_rx/r_Clock_Count_reg_6_:CK 0.000e+00
*RC uart_rx/r_Clock_Count_reg_4_:CK 0.000e+00
*RC uart_rx/r_Clock_Count_reg_8_:CK 0.000e+00
*RC uart_rx/r_Clock_Count_reg_10_:CK 0.000e+00
*RC uart_rx/r_Clock_Count_reg_3_:CK 0.000e+00
*RC uart_rx/r_Clock_Count_reg_5_:CK 0.000e+00
*RC uart_rx/r_Clock_Count_reg_7_:CK 0.000e+00
*RC uart_rx/r_Clock_Count_reg_9_:CK 0.000e+00
*RC uart_rx/r_Clock_Count_reg_0_:CK 0.000e+00
*RC uart_rx/r_Bit_Index_reg_2_:CK 0.000e+00
*RC uart_rx/r_Rx_Byte_reg_0_:CK 0.000e+00
*RC uart_rx/r_Rx_Byte_reg_4_:CK 0.000e+00
*RC uart_rx/r_Rx_Byte_reg_2_:CK 0.000e+00
*RC uart_rx/r_Rx_Byte_reg_6_:CK 0.000e+00
*RC uart_rx/r_Rx_Byte_reg_3_:CK 0.000e+00
*RC uart_rx/r_Rx_Byte_reg_7_:CK 0.000e+00
*RC uart_rx/r_Rx_Byte_reg_1_:CK 0.000e+00
*RC uart_rx/r_Rx_Byte_reg_5_:CK 0.000e+00
*RC uart_rx/r_Rx_DV_reg:CK 0.000e+00
*RC uart_rx/r_SM_Main_reg_2_:CK 0.000e+00
*RC uart_rx/r_Bit_Index_reg_1_:CK 0.000e+00
*RC uart_rx/r_SM_Main_reg_1_:CK 0.000e+00
*RC uart_rx/r_SM_Main_reg_0_:CK 0.000e+00
*RC uart_rx/r_Bit_Index_reg_0_:CK 0.000e+00
*RC r_data_counter_reg_1_:CK 0.000e+00
*RC r_lstate_reg_3_:CK 0.000e+00
*RC o_UART_DATA_TX_READY_reg:CK 0.000e+00
*RC r_data_counter_reg_2_:CK 0.000e+00
*RC o_UART_DATA_RX_reg_6_:CK 0.000e+00
*RC o_UART_DATA_RX_reg_5_:CK 0.000e+00
*RC o_UART_DATA_RX_reg_4_:CK 0.000e+00
*RC o_UART_DATA_RX_reg_3_:CK 0.000e+00
*RC o_UART_DATA_RX_reg_2_:CK 0.000e+00
*RC o_UART_DATA_RX_reg_1_:CK 0.000e+00
*RC o_UART_DATA_RX_reg_0_:CK 0.000e+00
*RC o_UART_DATA_RX_reg_7_:CK 0.000e+00
*RC r_pstate_reg_3_:CK 0.000e+00
*RC o_UART_DATA_RX_VALID_reg:CK 0.000e+00
*RC r_uart_data_tx_shift_reg_23_:CK 0.000e+00
*RC r_uart_data_tx_shift_reg_22_:CK 0.000e+00
*RC r_uart_data_tx_shift_reg_21_:CK 0.000e+00
*RC r_uart_data_tx_shift_reg_20_:CK 0.000e+00
*RC r_uart_data_tx_shift_reg_19_:CK 0.000e+00
*RC r_uart_data_tx_shift_reg_18_:CK 0.000e+00
*RC r_uart_data_tx_shift_reg_17_:CK 0.000e+00
*RC r_uart_data_tx_shift_reg_16_:CK 0.000e+00
*RC r_uart_data_tx_shift_reg_46_:CK 0.000e+00
*RC r_uart_data_tx_shift_reg_45_:CK 0.000e+00
*RC r_uart_data_tx_shift_reg_44_:CK 0.000e+00
*RC r_uart_data_tx_shift_reg_43_:CK 0.000e+00
*RC r_uart_data_tx_shift_reg_42_:CK 0.000e+00
*RC r_uart_data_tx_shift_reg_41_:CK 0.000e+00
*RC r_uart_data_tx_shift_reg_40_:CK 0.000e+00
*RC o_UART_DATA_RX_reg_14_:CK 0.000e+00
*RC r_uart_data_tx_shift_reg_7_:CK 0.000e+00
*RC r_uart_data_tx_shift_reg_6_:CK 0.000e+00
*RC r_uart_data_tx_shift_reg_5_:CK 0.000e+00
*RC r_uart_data_tx_shift_reg_4_:CK 0.000e+00
*RC r_uart_data_tx_shift_reg_3_:CK 0.000e+00
*RC r_uart_data_tx_shift_reg_2_:CK 0.000e+00
*RC r_uart_data_tx_shift_reg_1_:CK 0.000e+00
*RC r_uart_data_tx_shift_reg_0_:CK 0.000e+00
*RC o_UART_DATA_RX_reg_12_:CK 0.000e+00
*RC o_UART_DATA_RX_reg_9_:CK 0.000e+00
*RC o_UART_DATA_RX_reg_13_:CK 0.000e+00
*RC r_uart_data_tx_shift_reg_47_:CK 0.000e+00
*RC r_pstate_reg_1_:CK 0.000e+00
*RC r_uart_data_tx_shift_reg_49_:CK 0.000e+00
*RC r_uart_data_tx_shift_reg_38_:CK 0.000e+00
*RC r_uart_data_tx_shift_reg_37_:CK 0.000e+00
*RC r_uart_data_tx_shift_reg_36_:CK 0.000e+00
*RC r_uart_data_tx_shift_reg_35_:CK 0.000e+00
*RC r_uart_data_tx_shift_reg_34_:CK 0.000e+00
*RC r_uart_data_tx_shift_reg_33_:CK 0.000e+00
*RC r_uart_data_tx_shift_reg_32_:CK 0.000e+00
*RC r_uart_data_tx_shift_reg_31_:CK 0.000e+00
*RC r_uart_data_tx_shift_reg_30_:CK 0.000e+00
*RC r_uart_data_tx_shift_reg_29_:CK 0.000e+00
*RC r_uart_data_tx_shift_reg_28_:CK 0.000e+00
*RC r_uart_data_tx_shift_reg_27_:CK 0.000e+00
*RC r_uart_data_tx_shift_reg_26_:CK 0.000e+00
*RC r_uart_data_tx_shift_reg_25_:CK 0.000e+00
*RC r_uart_data_tx_shift_reg_24_:CK 0.000e+00
*RC r_uart_data_tx_shift_reg_15_:CK 0.000e+00
*RC r_uart_data_tx_shift_reg_14_:CK 0.000e+00
*RC r_uart_data_tx_shift_reg_13_:CK 0.000e+00
*RC r_uart_data_tx_shift_reg_12_:CK 0.000e+00
*RC r_uart_data_tx_shift_reg_11_:CK 0.000e+00
*RC r_lstate_reg_2_:CK 0.000e+00
*RC r_data_counter_reg_0_:CK 0.000e+00
*RC r_pstate_reg_0_:CK 0.000e+00
*RC r_uart_data_tx_shift_reg_54_:CK 0.000e+00
*RC r_uart_data_tx_shift_reg_53_:CK 0.000e+00
*RC r_uart_data_tx_shift_reg_50_:CK 0.000e+00
*RC r_uart_data_tx_shift_reg_55_:CK 0.000e+00
*RC r_uart_data_tx_shift_reg_51_:CK 0.000e+00
*RC r_uart_data_tx_shift_reg_48_:CK 0.000e+00
*RC r_pstate_reg_2_:CK 0.000e+00
*RC r_uart_data_tx_shift_reg_52_:CK 0.000e+00
*RC r_uart_data_tx_valid_reg:CK 0.000e+00
*RC r_uart_data_tx_shift_reg_8_:CK 0.000e+00
*RC r_uart_data_tx_shift_reg_9_:CK 0.000e+00
*RC r_uart_data_tx_shift_reg_10_:CK 0.000e+00
*RC r_uart_data_tx_reg_3_:CK 0.000e+00
*RC r_uart_data_tx_reg_7_:CK 0.000e+00
*RC r_uart_data_tx_shift_reg_39_:CK 0.000e+00
*RC r_uart_data_tx_reg_2_:CK 0.000e+00
*RC r_uart_data_tx_reg_5_:CK 0.000e+00
*RC r_uart_data_tx_reg_6_:CK 0.000e+00
*RC r_uart_data_tx_reg_1_:CK 0.000e+00
*RC r_uart_data_tx_reg_4_:CK 0.000e+00
*RC r_uart_data_tx_reg_0_:CK 0.000e+00
*RC o_UART_DATA_RX_reg_10_:CK 0.000e+00
*RC o_UART_DATA_RX_reg_11_:CK 0.000e+00
*RC o_UART_DATA_RX_reg_8_:CK 0.000e+00
*RC uart_tx/o_Tx_Serial_reg:CK 0.000e+00
*RC uart_tx/r_SM_Main_reg_0_:CK 0.000e+00
*RC uart_tx/r_Bit_Index_reg_1_:CK 0.000e+00
*RC uart_tx/r_SM_Main_reg_1_:CK 0.000e+00
*RC uart_tx/r_SM_Main_reg_2_:CK 0.000e+00
*RC uart_tx/r_Clock_Count_reg_3_:CK 0.000e+00
*RC uart_tx/r_Clock_Count_reg_4_:CK 0.000e+00
*RC uart_tx/r_Clock_Count_reg_5_:CK 0.000e+00
*RC uart_tx/r_Clock_Count_reg_1_:CK 0.000e+00
*RC uart_tx/r_Clock_Count_reg_0_:CK 0.000e+00
*RC uart_tx/r_Clock_Count_reg_6_:CK 0.000e+00
*RC uart_tx/r_Clock_Count_reg_7_:CK 0.000e+00
*RC uart_tx/r_Clock_Count_reg_2_:CK 0.000e+00
*RC uart_tx/r_Bit_Index_reg_0_:CK 0.000e+00
*RC uart_tx/r_Bit_Index_reg_2_:CK 0.000e+00
*RC uart_tx/r_Tx_Data_reg_7_:CK 0.000e+00
*RC uart_tx/r_Tx_Data_reg_3_:CK 0.000e+00
*RC uart_tx/r_Tx_Data_reg_4_:CK 0.000e+00
*RC uart_tx/r_Tx_Data_reg_0_:CK 0.000e+00
*RC uart_tx/r_Tx_Data_reg_5_:CK 0.000e+00
*RC uart_tx/r_Tx_Data_reg_1_:CK 0.000e+00
*RC uart_tx/r_Tx_Data_reg_6_:CK 0.000e+00
*RC uart_tx/r_Tx_Data_reg_2_:CK 0.000e+00
*RC uart_tx/r_Tx_Active_reg:CK 0.000e+00
*RC uart_tx/r_Tx_Done_reg:CK 0.000e+00
*END

*R_NET r_uart_data_tx_valid 9.150e-03
*DRIVER r_uart_data_tx_valid_reg:Q
*CELL fd2qd1_hd
*C2_R1_C1 4.575e-03 9.100e-03 4.575e-03 
*LOADS
*RC U344:B 8.327e-05
*RC uart_tx/U125:A 8.327e-05
*END

*R_NET r_uart_data_tx\[7\] 8.680e-03
*DRIVER r_uart_data_tx_reg_7_:Q
*CELL fd2qd1_hd
*C2_R1_C1 4.340e-03 9.100e-03 4.340e-03 
*LOADS
*RC U474:D 7.899e-05
*RC uart_tx/U145:B 7.899e-05
*END

*R_NET r_uart_data_tx\[6\] 8.670e-03
*DRIVER r_uart_data_tx_reg_6_:Q
*CELL fd2qd1_hd
*C2_R1_C1 4.335e-03 9.100e-03 4.335e-03 
*LOADS
*RC U318:D 7.890e-05
*RC uart_tx/U147:B 7.890e-05
*END

*R_NET r_uart_data_tx\[5\] 8.670e-03
*DRIVER r_uart_data_tx_reg_5_:Q
*CELL fd2qd1_hd
*C2_R1_C1 4.335e-03 9.100e-03 4.335e-03 
*LOADS
*RC U316:D 7.890e-05
*RC uart_tx/U141:B 7.890e-05
*END

*R_NET r_uart_data_tx\[4\] 8.780e-03
*DRIVER r_uart_data_tx_reg_4_:Q
*CELL fd2qd1_hd
*C2_R1_C1 4.390e-03 9.100e-03 4.390e-03 
*LOADS
*RC U317:B 7.990e-05
*RC uart_tx/U140:B 7.990e-05
*END

*R_NET r_uart_data_tx\[3\] 8.680e-03
*DRIVER r_uart_data_tx_reg_3_:Q
*CELL fd2qd1_hd
*C2_R1_C1 4.340e-03 9.100e-03 4.340e-03 
*LOADS
*RC U473:D 7.899e-05
*RC uart_tx/U144:B 7.899e-05
*END

*R_NET r_uart_data_tx\[2\] 8.670e-03
*DRIVER r_uart_data_tx_reg_2_:Q
*CELL fd2qd1_hd
*C2_R1_C1 4.335e-03 9.100e-03 4.335e-03 
*LOADS
*RC U314:D 7.890e-05
*RC uart_tx/U143:B 7.890e-05
*END

*R_NET r_uart_data_tx\[1\] 8.780e-03
*DRIVER r_uart_data_tx_reg_1_:Q
*CELL fd2qd1_hd
*C2_R1_C1 4.390e-03 9.100e-03 4.390e-03 
*LOADS
*RC U315:B 7.990e-05
*RC uart_tx/U146:B 7.990e-05
*END

*R_NET r_uart_data_tx\[0\] 8.550e-03
*DRIVER r_uart_data_tx_reg_0_:Q
*CELL fd2qd1_hd
*C2_R1_C1 4.275e-03 9.100e-03 4.275e-03 
*LOADS
*RC U472:C 7.781e-05
*RC uart_tx/U142:B 7.781e-05
*END

*R_NET w_uart_data_tx_done 1.551e-02
*DRIVER uart_tx/r_Tx_Done_reg:Q
*CELL fd2qd1_hd
*C2_R1_C1 7.755e-03 9.460e-03 7.755e-03 
*LOADS
*RC uart_tx/U170:A 1.467e-04
*RC U295:B 1.467e-04
*RC U387:B 1.467e-04
*END

*R_NET w_uart_data_rx_valid 1.485e-02
*DRIVER uart_rx/r_Rx_DV_reg:Q
*CELL fd2d1_hd
*C2_R1_C1 7.425e-03 9.460e-03 7.425e-03 
*LOADS
*RC uart_rx/U168:A 1.405e-04
*RC U300:A 1.405e-04
*RC U371:A 1.405e-04
*END

*R_NET r_pstate\[3\] 1.645e-02
*DRIVER r_pstate_reg_3_:Q
*CELL fd2qd1_hd
*C2_R1_C1 8.225e-03 9.460e-03 8.225e-03 
*LOADS
*RC U294:A 1.556e-04
*RC U372:A 1.556e-04
*RC U385:C 1.556e-04
*END

*R_NET r_pstate\[1\] 2.261e-02
*DRIVER r_pstate_reg_1_:Q
*CELL fd2qd1_hd
*C2_R1_C1 1.130e-02 1.094e-02 1.130e-02 
*LOADS
*RC U374:B 2.474e-04
*RC U378:A 2.474e-04
*RC U381:B 2.474e-04
*RC U384:A 2.474e-04
*END

*R_NET r_uart_data_tx_shift\[52\] 1.559e-02
*DRIVER r_uart_data_tx_shift_reg_52_:Q
*CELL fd2qd1_hd
*C2_R1_C1 7.795e-03 9.460e-03 7.795e-03 
*LOADS
*RC U317:D 1.475e-04
*RC U380:B 1.475e-04
*RC U393:A 1.475e-04
*END

*R_NET r_uart_data_tx_shift\[49\] 2.160e-02
*DRIVER r_uart_data_tx_shift_reg_49_:Q
*CELL fd2qd1_hd
*C2_R1_C1 1.080e-02 1.094e-02 1.080e-02 
*LOADS
*RC U315:D 2.363e-04
*RC U369:A 2.363e-04
*RC U381:C 2.363e-04
*RC U395:B 2.363e-04
*END

*R_NET r_uart_data_tx_shift\[47\] 9.570e-03
*DRIVER r_uart_data_tx_shift_reg_47_:Q
*CELL fd2qd1_hd
*C2_R1_C1 4.785e-03 9.100e-03 4.785e-03 
*LOADS
*RC U400:B 8.709e-05
*RC U495:C 8.709e-05
*END

*R_NET r_uart_data_tx_shift\[46\] 9.820e-03
*DRIVER r_uart_data_tx_shift_reg_46_:Q
*CELL fd2qd1_hd
*C2_R1_C1 4.910e-03 9.100e-03 4.910e-03 
*LOADS
*RC U460:B 8.936e-05
*RC U497:B 8.936e-05
*END

*R_NET r_uart_data_tx_shift\[45\] 9.820e-03
*DRIVER r_uart_data_tx_shift_reg_45_:Q
*CELL fd2qd1_hd
*C2_R1_C1 4.910e-03 9.100e-03 4.910e-03 
*LOADS
*RC U459:B 8.936e-05
*RC U498:B 8.936e-05
*END

*R_NET r_uart_data_tx_shift\[44\] 9.710e-03
*DRIVER r_uart_data_tx_shift_reg_44_:Q
*CELL fd2qd1_hd
*C2_R1_C1 4.855e-03 9.100e-03 4.855e-03 
*LOADS
*RC U458:B 8.836e-05
*RC U462:B 8.836e-05
*END

*R_NET r_uart_data_tx_shift\[43\] 8.460e-03
*DRIVER r_uart_data_tx_shift_reg_43_:Q
*CELL fd2qd1_hd
*C2_R1_C1 4.230e-03 9.100e-03 4.230e-03 
*LOADS
*RC U457:B 7.699e-05
*RC U499:C 7.699e-05
*END

*R_NET r_uart_data_tx_shift\[42\] 9.820e-03
*DRIVER r_uart_data_tx_shift_reg_42_:Q
*CELL fd2qd1_hd
*C2_R1_C1 4.910e-03 9.100e-03 4.910e-03 
*LOADS
*RC U456:B 8.936e-05
*RC U501:B 8.936e-05
*END

*R_NET r_uart_data_tx_shift\[41\] 9.710e-03
*DRIVER r_uart_data_tx_shift_reg_41_:Q
*CELL fd2qd1_hd
*C2_R1_C1 4.855e-03 9.100e-03 4.855e-03 
*LOADS
*RC U455:B 8.836e-05
*RC U461:B 8.836e-05
*END

*R_NET r_uart_data_tx_shift\[40\] 8.460e-03
*DRIVER r_uart_data_tx_shift_reg_40_:Q
*CELL fd2qd1_hd
*C2_R1_C1 4.230e-03 9.100e-03 4.230e-03 
*LOADS
*RC U454:B 7.699e-05
*RC U502:C 7.699e-05
*END

*R_NET r_uart_data_tx_shift\[39\] 5.220e-03
*DRIVER r_uart_data_tx_shift_reg_39_:Q
*CELL fd2qd1_hd
*C2_R1_C1 2.610e-03 7.370e-03 2.610e-03 
*LOADS
*RC U368:A 3.847e-05
*END

*R_NET r_uart_data_tx_shift\[38\] 9.730e-03
*DRIVER r_uart_data_tx_shift_reg_38_:Q
*CELL fd2qd1_hd
*C2_R1_C1 4.865e-03 9.100e-03 4.865e-03 
*LOADS
*RC U451:B 8.854e-05
*RC U460:E 8.854e-05
*END

*R_NET r_uart_data_tx_shift\[37\] 9.730e-03
*DRIVER r_uart_data_tx_shift_reg_37_:Q
*CELL fd2qd1_hd
*C2_R1_C1 4.865e-03 9.100e-03 4.865e-03 
*LOADS
*RC U450:B 8.854e-05
*RC U459:E 8.854e-05
*END

*R_NET r_uart_data_tx_shift\[36\] 9.730e-03
*DRIVER r_uart_data_tx_shift_reg_36_:Q
*CELL fd2qd1_hd
*C2_R1_C1 4.865e-03 9.100e-03 4.865e-03 
*LOADS
*RC U449:B 8.854e-05
*RC U458:E 8.854e-05
*END

*R_NET r_uart_data_tx_shift\[35\] 9.730e-03
*DRIVER r_uart_data_tx_shift_reg_35_:Q
*CELL fd2qd1_hd
*C2_R1_C1 4.865e-03 9.100e-03 4.865e-03 
*LOADS
*RC U448:B 8.854e-05
*RC U457:E 8.854e-05
*END

*R_NET r_uart_data_tx_shift\[34\] 9.730e-03
*DRIVER r_uart_data_tx_shift_reg_34_:Q
*CELL fd2qd1_hd
*C2_R1_C1 4.865e-03 9.100e-03 4.865e-03 
*LOADS
*RC U447:B 8.854e-05
*RC U456:E 8.854e-05
*END

*R_NET r_uart_data_tx_shift\[33\] 9.730e-03
*DRIVER r_uart_data_tx_shift_reg_33_:Q
*CELL fd2qd1_hd