*SPEF "IEEE 1481-1999"
*DESIGN "iir_notch"
*DATE "Wed Aug 26 17:15:17 2020"
*VENDOR "SYNOPSYS INC"
*PROGRAM "Synopsys Design Compiler cmos"
*VERSION "F-2011.09-SP5-3"
*DESIGN_FLOW "SYNTHESIS"
*DIVIDER /
*DELIMITER :
*BUS_DELIMITER []
*T_UNIT 1.0 NS
*C_UNIT 1.0 PF
*R_UNIT 1.0 KOHM
*L_UNIT 1.0 HENRY

*PORTS

i_X_DATA\[31\] I *L 1.900e-03 *S 1.462e-01 1.662e-01 *D fd4qd1_hd 
i_X_DATA\[30\] I *L 1.900e-03 *S 1.462e-01 1.662e-01 *D fd4qd1_hd 
i_X_DATA\[29\] I *L 1.900e-03 *S 1.462e-01 1.662e-01 *D fd4qd1_hd 
i_X_DATA\[28\] I *L 1.900e-03 *S 1.462e-01 1.662e-01 *D fd4qd1_hd 
i_X_DATA\[27\] I *L 1.900e-03 *S 1.462e-01 1.662e-01 *D fd4qd1_hd 
i_X_DATA\[26\] I *L 1.900e-03 *S 1.462e-01 1.662e-01 *D fd4qd1_hd 
i_X_DATA\[25\] I *L 1.900e-03 *S 1.462e-01 1.662e-01 *D fd4qd1_hd 
i_X_DATA\[24\] I *L 1.900e-03 *S 1.462e-01 1.662e-01 *D fd4qd1_hd 
i_X_DATA\[23\] I *L 1.900e-03 *S 1.462e-01 1.662e-01 *D fd4qd1_hd 
i_X_DATA\[22\] I *L 1.900e-03 *S 1.462e-01 1.662e-01 *D fd4qd1_hd 
i_X_DATA\[21\] I *L 1.900e-03 *S 1.462e-01 1.662e-01 *D fd4qd1_hd 
i_X_DATA\[20\] I *L 1.900e-03 *S 1.462e-01 1.662e-01 *D fd4qd1_hd 
i_X_DATA\[19\] I *L 1.900e-03 *S 1.462e-01 1.662e-01 *D fd4qd1_hd 
i_X_DATA\[18\] I *L 1.900e-03 *S 1.462e-01 1.662e-01 *D fd4qd1_hd 
i_X_DATA\[17\] I *L 1.900e-03 *S 1.468e-01 1.667e-01 *D fd4qd1_hd 
i_X_DATA\[16\] I *L 1.900e-03 *S 1.468e-01 1.667e-01 *D fd4qd1_hd 
i_X_DATA\[15\] I *L 1.900e-03 *S 1.468e-01 1.667e-01 *D fd4qd1_hd 
i_X_DATA\[14\] I *L 1.900e-03 *S 1.468e-01 1.667e-01 *D fd4qd1_hd 
i_X_DATA\[13\] I *L 1.900e-03 *S 1.468e-01 1.667e-01 *D fd4qd1_hd 
i_X_DATA\[12\] I *L 1.900e-03 *S 1.468e-01 1.667e-01 *D fd4qd1_hd 
i_X_DATA\[11\] I *L 1.900e-03 *S 1.468e-01 1.667e-01 *D fd4qd1_hd 
i_X_DATA\[10\] I *L 1.900e-03 *S 1.468e-01 1.667e-01 *D fd4qd1_hd 
i_X_DATA\[9\] I *L 1.900e-03 *S 1.468e-01 1.667e-01 *D fd4qd1_hd 
i_X_DATA\[8\] I *L 1.900e-03 *S 1.468e-01 1.667e-01 *D fd4qd1_hd 
i_X_DATA\[7\] I *L 1.900e-03 *S 1.468e-01 1.667e-01 *D fd4qd1_hd 
i_X_DATA\[6\] I *L 1.900e-03 *S 1.468e-01 1.667e-01 *D fd4qd1_hd 
i_X_DATA\[5\] I *L 1.900e-03 *S 1.468e-01 1.667e-01 *D fd4qd1_hd 
i_X_DATA\[4\] I *L 1.900e-03 *S 1.462e-01 1.662e-01 *D fd4qd1_hd 
i_X_DATA\[3\] I *L 1.900e-03 *S 1.462e-01 1.662e-01 *D fd4qd1_hd 
i_X_DATA\[2\] I *L 1.900e-03 *S 1.462e-01 1.662e-01 *D fd4qd1_hd 
i_X_DATA\[1\] I *L 1.900e-03 *S 1.462e-01 1.662e-01 *D fd4qd1_hd 
i_X_DATA\[0\] I *L 1.900e-03 *S 1.462e-01 1.662e-01 *D fd4qd1_hd 
i_X_DATA_VALID I *L 1.900e-03 *S 2.191e-01 2.321e-01 *D fd4qd1_hd 
o_X_DATA_READY O *L 1.035e-02 *S 3.342e-01 2.335e-01 
o_Y_DATA\[31\] O *L 1.035e-02 *S 2.031e-01 2.391e-01 
o_Y_DATA\[30\] O *L 1.035e-02 *S 2.031e-01 2.391e-01 
o_Y_DATA\[29\] O *L 1.035e-02 *S 2.031e-01 2.391e-01 
o_Y_DATA\[28\] O *L 1.035e-02 *S 2.031e-01 2.391e-01 
o_Y_DATA\[27\] O *L 1.035e-02 *S 2.031e-01 2.391e-01 
o_Y_DATA\[26\] O *L 1.035e-02 *S 2.031e-01 2.391e-01 
o_Y_DATA\[25\] O *L 1.035e-02 *S 2.031e-01 2.391e-01 
o_Y_DATA\[24\] O *L 1.035e-02 *S 2.031e-01 2.391e-01 
o_Y_DATA\[23\] O *L 1.035e-02 *S 2.031e-01 2.391e-01 
o_Y_DATA\[22\] O *L 1.035e-02 *S 2.031e-01 2.391e-01 
o_Y_DATA\[21\] O *L 1.035e-02 *S 2.031e-01 2.391e-01 
o_Y_DATA\[20\] O *L 1.035e-02 *S 2.031e-01 2.391e-01 
o_Y_DATA\[19\] O *L 1.035e-02 *S 2.031e-01 2.391e-01 
o_Y_DATA\[18\] O *L 1.035e-02 *S 2.031e-01 2.391e-01 
o_Y_DATA\[17\] O *L 1.035e-02 *S 2.031e-01 2.391e-01 
o_Y_DATA\[16\] O *L 1.035e-02 *S 2.031e-01 2.391e-01 
o_Y_DATA\[15\] O *L 1.035e-02 *S 2.031e-01 2.391e-01 
o_Y_DATA\[14\] O *L 1.035e-02 *S 2.031e-01 2.391e-01 
o_Y_DATA\[13\] O *L 1.035e-02 *S 2.031e-01 2.391e-01 
o_Y_DATA\[12\] O *L 1.035e-02 *S 2.031e-01 2.391e-01 
o_Y_DATA\[11\] O *L 1.035e-02 *S 2.031e-01 2.391e-01 
o_Y_DATA\[10\] O *L 1.035e-02 *S 2.031e-01 2.391e-01 
o_Y_DATA\[9\] O *L 1.035e-02 *S 2.031e-01 2.391e-01 
o_Y_DATA\[8\] O *L 1.035e-02 *S 2.031e-01 2.391e-01 
o_Y_DATA\[7\] O *L 1.035e-02 *S 2.031e-01 2.391e-01 
o_Y_DATA\[6\] O *L 1.035e-02 *S 2.031e-01 2.391e-01 
o_Y_DATA\[5\] O *L 1.035e-02 *S 2.031e-01 2.391e-01 
o_Y_DATA\[4\] O *L 1.035e-02 *S 2.031e-01 2.391e-01 
o_Y_DATA\[3\] O *L 1.035e-02 *S 2.031e-01 2.391e-01 
o_Y_DATA\[2\] O *L 1.035e-02 *S 2.031e-01 2.391e-01 
o_Y_DATA\[1\] O *L 1.035e-02 *S 2.031e-01 2.391e-01 
o_Y_DATA\[0\] O *L 1.035e-02 *S 2.031e-01 2.391e-01 
o_Y_DATA_VALID O *L 1.035e-02 *S 3.345e-01 3.464e-01 
i_Y_ACK I *L 1.900e-03 *S 1.506e-01 1.704e-01 *D fd4qd1_hd 
i_CLK I *L 0.000e+00 *S 0.000e+00 0.000e+00 
i_RSTN I *L 1.656e-01 *S 0.000e+00 0.000e+00 *D nid6_hd 

*R_NET i_X_DATA\[31\] 1.453e-02
*DRIVER i_X_DATA\[31\]
*CELL fd4qd1_hd
*C2_R1_C1 7.265e-03 1.275e-02 7.265e-03 
*LOADS
*RC r_x_data_reg_31_:D 1.853e-04
*END

*R_NET i_X_DATA\[30\] 1.453e-02
*DRIVER i_X_DATA\[30\]
*CELL fd4qd1_hd
*C2_R1_C1 7.265e-03 1.275e-02 7.265e-03 
*LOADS
*RC r_x_data_reg_30_:D 1.853e-04
*END

*R_NET i_X_DATA\[29\] 1.453e-02
*DRIVER i_X_DATA\[29\]
*CELL fd4qd1_hd
*C2_R1_C1 7.265e-03 1.275e-02 7.265e-03 
*LOADS
*RC r_x_data_reg_29_:D 1.853e-04
*END

*R_NET i_X_DATA\[28\] 1.453e-02
*DRIVER i_X_DATA\[28\]
*CELL fd4qd1_hd
*C2_R1_C1 7.265e-03 1.275e-02 7.265e-03 
*LOADS
*RC r_x_data_reg_28_:D 1.853e-04
*END

*R_NET i_X_DATA\[27\] 1.453e-02
*DRIVER i_X_DATA\[27\]
*CELL fd4qd1_hd
*C2_R1_C1 7.265e-03 1.275e-02 7.265e-03 
*LOADS
*RC r_x_data_reg_27_:D 1.853e-04
*END

*R_NET i_X_DATA\[26\] 1.453e-02
*DRIVER i_X_DATA\[26\]
*CELL fd4qd1_hd
*C2_R1_C1 7.265e-03 1.275e-02 7.265e-03 
*LOADS
*RC r_x_data_reg_26_:D 1.853e-04
*END

*R_NET i_X_DATA\[25\] 1.453e-02
*DRIVER i_X_DATA\[25\]
*CELL fd4qd1_hd
*C2_R1_C1 7.265e-03 1.275e-02 7.265e-03 
*LOADS
*RC r_x_data_reg_25_:D 1.853e-04
*END

*R_NET i_X_DATA\[24\] 1.453e-02
*DRIVER i_X_DATA\[24\]
*CELL fd4qd1_hd
*C2_R1_C1 7.265e-03 1.275e-02 7.265e-03 
*LOADS
*RC r_x_data_reg_24_:D 1.853e-04
*END

*R_NET i_X_DATA\[23\] 1.453e-02
*DRIVER i_X_DATA\[23\]
*CELL fd4qd1_hd
*C2_R1_C1 7.265e-03 1.275e-02 7.265e-03 
*LOADS
*RC r_x_data_reg_23_:D 1.853e-04
*END

*R_NET i_X_DATA\[22\] 1.453e-02
*DRIVER i_X_DATA\[22\]
*CELL fd4qd1_hd
*C2_R1_C1 7.265e-03 1.275e-02 7.265e-03 
*LOADS
*RC r_x_data_reg_22_:D 1.853e-04
*END

*R_NET i_X_DATA\[21\] 1.453e-02
*DRIVER i_X_DATA\[21\]
*CELL fd4qd1_hd
*C2_R1_C1 7.265e-03 1.275e-02 7.265e-03 
*LOADS
*RC r_x_data_reg_21_:D 1.853e-04
*END

*R_NET i_X_DATA\[20\] 1.453e-02
*DRIVER i_X_DATA\[20\]
*CELL fd4qd1_hd
*C2_R1_C1 7.265e-03 1.275e-02 7.265e-03 
*LOADS
*RC r_x_data_reg_20_:D 1.853e-04
*END

*R_NET i_X_DATA\[19\] 1.453e-02
*DRIVER i_X_DATA\[19\]
*CELL fd4qd1_hd
*C2_R1_C1 7.265e-03 1.275e-02 7.265e-03 
*LOADS
*RC r_x_data_reg_19_:D 1.853e-04
*END

*R_NET i_X_DATA\[18\] 1.453e-02
*DRIVER i_X_DATA\[18\]
*CELL fd4qd1_hd
*C2_R1_C1 7.265e-03 1.275e-02 7.265e-03 
*LOADS
*RC r_x_data_reg_18_:D 1.853e-04
*END

*R_NET i_X_DATA\[17\] 1.459e-02
*DRIVER i_X_DATA\[17\]
*CELL fd4qd1_hd
*C2_R1_C1 7.295e-03 1.275e-02 7.295e-03 
*LOADS
*RC U598:B 1.860e-04
*END

*R_NET i_X_DATA\[16\] 1.459e-02
*DRIVER i_X_DATA\[16\]
*CELL fd4qd1_hd
*C2_R1_C1 7.295e-03 1.275e-02 7.295e-03 
*LOADS
*RC U597:B 1.860e-04
*END

*R_NET i_X_DATA\[15\] 1.459e-02
*DRIVER i_X_DATA\[15\]
*CELL fd4qd1_hd
*C2_R1_C1 7.295e-03 1.275e-02 7.295e-03 
*LOADS
*RC U596:B 1.860e-04
*END

*R_NET i_X_DATA\[14\] 1.459e-02
*DRIVER i_X_DATA\[14\]
*CELL fd4qd1_hd
*C2_R1_C1 7.295e-03 1.275e-02 7.295e-03 
*LOADS
*RC U595:B 1.860e-04
*END

*R_NET i_X_DATA\[13\] 1.459e-02
*DRIVER i_X_DATA\[13\]
*CELL fd4qd1_hd
*C2_R1_C1 7.295e-03 1.275e-02 7.295e-03 
*LOADS
*RC U594:B 1.860e-04
*END

*R_NET i_X_DATA\[12\] 1.459e-02
*DRIVER i_X_DATA\[12\]
*CELL fd4qd1_hd
*C2_R1_C1 7.295e-03 1.275e-02 7.295e-03 
*LOADS
*RC U593:B 1.860e-04
*END

*R_NET i_X_DATA\[11\] 1.459e-02
*DRIVER i_X_DATA\[11\]
*CELL fd4qd1_hd
*C2_R1_C1 7.295e-03 1.275e-02 7.295e-03 
*LOADS
*RC U592:B 1.860e-04
*END

*R_NET i_X_DATA\[10\] 1.459e-02
*DRIVER i_X_DATA\[10\]
*CELL fd4qd1_hd
*C2_R1_C1 7.295e-03 1.275e-02 7.295e-03 
*LOADS
*RC U591:B 1.860e-04
*END

*R_NET i_X_DATA\[9\] 1.459e-02
*DRIVER i_X_DATA\[9\]
*CELL fd4qd1_hd
*C2_R1_C1 7.295e-03 1.275e-02 7.295e-03 
*LOADS
*RC U590:B 1.860e-04
*END

*R_NET i_X_DATA\[8\] 1.459e-02
*DRIVER i_X_DATA\[8\]
*CELL fd4qd1_hd
*C2_R1_C1 7.295e-03 1.275e-02 7.295e-03 
*LOADS
*RC U589:B 1.860e-04
*END

*R_NET i_X_DATA\[7\] 1.459e-02
*DRIVER i_X_DATA\[7\]
*CELL fd4qd1_hd
*C2_R1_C1 7.295e-03 1.275e-02 7.295e-03 
*LOADS
*RC U588:B 1.860e-04
*END

*R_NET i_X_DATA\[6\] 1.459e-02
*DRIVER i_X_DATA\[6\]
*CELL fd4qd1_hd
*C2_R1_C1 7.295e-03 1.275e-02 7.295e-03 
*LOADS
*RC U587:B 1.860e-04
*END

*R_NET i_X_DATA\[5\] 1.459e-02
*DRIVER i_X_DATA\[5\]
*CELL fd4qd1_hd
*C2_R1_C1 7.295e-03 1.275e-02 7.295e-03 
*LOADS
*RC U586:B 1.860e-04
*END

*R_NET i_X_DATA\[4\] 1.453e-02
*DRIVER i_X_DATA\[4\]
*CELL fd4qd1_hd
*C2_R1_C1 7.265e-03 1.275e-02 7.265e-03 
*LOADS
*RC r_x_data_reg_4_:D 1.853e-04
*END

*R_NET i_X_DATA\[3\] 1.453e-02
*DRIVER i_X_DATA\[3\]
*CELL fd4qd1_hd
*C2_R1_C1 7.265e-03 1.275e-02 7.265e-03 
*LOADS
*RC r_x_data_reg_3_:D 1.853e-04
*END

*R_NET i_X_DATA\[2\] 1.453e-02
*DRIVER i_X_DATA\[2\]
*CELL fd4qd1_hd
*C2_R1_C1 7.265e-03 1.275e-02 7.265e-03 
*LOADS
*RC r_x_data_reg_2_:D 1.853e-04
*END

*R_NET i_X_DATA\[1\] 1.453e-02
*DRIVER i_X_DATA\[1\]
*CELL fd4qd1_hd
*C2_R1_C1 7.265e-03 1.275e-02 7.265e-03 
*LOADS
*RC r_x_data_reg_1_:D 1.853e-04
*END

*R_NET i_X_DATA\[0\] 1.453e-02
*DRIVER i_X_DATA\[0\]
*CELL fd4qd1_hd
*C2_R1_C1 7.265e-03 1.275e-02 7.265e-03 
*LOADS
*RC r_x_data_reg_0_:D 1.853e-04
*END

*R_NET o_Y_DATA\[31\] 2.298e-02
*DRIVER o_Y_DATA_reg_31_:Q
*CELL fd2qd1_hd
*C2_R1_C1 1.149e-02 1.275e-02 1.149e-02 
*LOADS
*RC r_y_data_reg_31_:D 2.930e-04
*RC o_Y_DATA\[31\] 2.930e-04
*END

*R_NET o_Y_DATA\[30\] 2.298e-02
*DRIVER o_Y_DATA_reg_30_:Q
*CELL fd2qd1_hd
*C2_R1_C1 1.149e-02 1.275e-02 1.149e-02 
*LOADS
*RC r_y_data_reg_30_:D 2.930e-04
*RC o_Y_DATA\[30\] 2.930e-04
*END

*R_NET o_Y_DATA\[29\] 2.298e-02
*DRIVER o_Y_DATA_reg_29_:Q
*CELL fd2qd1_hd
*C2_R1_C1 1.149e-02 1.275e-02 1.149e-02 
*LOADS
*RC r_y_data_reg_29_:D 2.930e-04
*RC o_Y_DATA\[29\] 2.930e-04
*END

*R_NET o_Y_DATA\[28\] 2.298e-02
*DRIVER o_Y_DATA_reg_28_:Q
*CELL fd2qd1_hd
*C2_R1_C1 1.149e-02 1.275e-02 1.149e-02 
*LOADS
*RC r_y_data_reg_28_:D 2.930e-04
*RC o_Y_DATA\[28\] 2.930e-04
*END

*R_NET o_Y_DATA\[27\] 2.298e-02
*DRIVER o_Y_DATA_reg_27_:Q
*CELL fd2qd1_hd
*C2_R1_C1 1.149e-02 1.275e-02 1.149e-02 
*LOADS
*RC r_y_data_reg_27_:D 2.930e-04
*RC o_Y_DATA\[27\] 2.930e-04
*END

*R_NET o_Y_DATA\[26\] 2.298e-02
*DRIVER o_Y_DATA_reg_26_:Q
*CELL fd2qd1_hd
*C2_R1_C1 1.149e-02 1.275e-02 1.149e-02 
*LOADS
*RC r_y_data_reg_26_:D 2.930e-04
*RC o_Y_DATA\[26\] 2.930e-04
*END

*R_NET o_Y_DATA\[25\] 2.298e-02
*DRIVER o_Y_DATA_reg_25_:Q
*CELL fd2qd1_hd
*C2_R1_C1 1.149e-02 1.275e-02 1.149e-02 
*LOADS
*RC r_y_data_reg_25_:D 2.930e-04
*RC o_Y_DATA\[25\] 2.930e-04
*END

*R_NET o_Y_DATA\[24\] 2.298e-02
*DRIVER o_Y_DATA_reg_24_:Q
*CELL fd2qd1_hd
*C2_R1_C1 1.149e-02 1.275e-02 1.149e-02 
*LOADS
*RC r_y_data_reg_24_:D 2.930e-04
*RC o_Y_DATA\[24\] 2.930e-04
*END

*R_NET o_Y_DATA\[23\] 2.298e-02
*DRIVER o_Y_DATA_reg_23_:Q
*CELL fd2qd1_hd
*C2_R1_C1 1.149e-02 1.275e-02 1.149e-02 
*LOADS
*RC r_y_data_reg_23_:D 2.930e-04
*RC o_Y_DATA\[23\] 2.930e-04
*END

*R_NET o_Y_DATA\[22\] 2.298e-02
*DRIVER o_Y_DATA_reg_22_:Q
*CELL fd2qd1_hd
*C2_R1_C1 1.149e-02 1.275e-02 1.149e-02 
*LOADS
*RC r_y_data_reg_22_:D 2.930e-04
*RC o_Y_DATA\[22\] 2.930e-04
*END

*R_NET o_Y_DATA\[21\] 2.298e-02
*DRIVER o_Y_DATA_reg_21_:Q
*CELL fd2qd1_hd
*C2_R1_C1 1.149e-02 1.275e-02 1.149e-02 
*LOADS
*RC r_y_data_reg_21_:D 2.930e-04
*RC o_Y_DATA\[21\] 2.930e-04
*END

*R_NET o_Y_DATA\[20\] 2.298e-02
*DRIVER o_Y_DATA_reg_20_:Q
*CELL fd2qd1_hd
*C2_R1_C1 1.149e-02 1.275e-02 1.149e-02 
*LOADS
*RC r_y_data_reg_20_:D 2.930e-04
*RC o_Y_DATA\[20\] 2.930e-04
*END

*R_NET o_Y_DATA\[19\] 2.298e-02
*DRIVER o_Y_DATA_reg_19_:Q
*CELL fd2qd1_hd
*C2_R1_C1 1.149e-02 1.275e-02 1.149e-02 
*LOADS
*RC r_y_data_reg_19_:D 2.930e-04
*RC o_Y_DATA\[19\] 2.930e-04
*END

*R_NET o_Y_DATA\[18\] 2.298e-02
*DRIVER o_Y_DATA_reg_18_:Q
*CELL fd2qd1_hd
*C2_R1_C1 1.149e-02 1.275e-02 1.149e-02 
*LOADS
*RC r_y_data_reg_18_:D 2.930e-04
*RC o_Y_DATA\[18\] 2.930e-04
*END

*R_NET o_Y_DATA\[17\] 2.298e-02
*DRIVER o_Y_DATA_reg_17_:Q
*CELL fd2qd1_hd
*C2_R1_C1 1.149e-02 1.275e-02 1.149e-02 
*LOADS
*RC r_y_data_reg_17_:D 2.930e-04
*RC o_Y_DATA\[17\] 2.930e-04
*END

*R_NET o_Y_DATA\[16\] 2.298e-02
*DRIVER o_Y_DATA_reg_16_:Q
*CELL fd2qd1_hd
*C2_R1_C1 1.149e-02 1.275e-02 1.149e-02 
*LOADS
*RC r_y_data_reg_16_:D 2.930e-04
*RC o_Y_DATA\[16\] 2.930e-04
*END

*R_NET o_Y_DATA\[15\] 2.298e-02
*DRIVER o_Y_DATA_reg_15_:Q
*CELL fd2qd1_hd
*C2_R1_C1 1.149e-02 1.275e-02 1.149e-02 
*LOADS
*RC r_y_data_reg_15_:D 2.930e-04
*RC o_Y_DATA\[15\] 2.930e-04
*END

*R_NET o_Y_DATA\[14\] 2.298e-02
*DRIVER o_Y_DATA_reg_14_:Q
*CELL fd2qd1_hd
*C2_R1_C1 1.149e-02 1.275e-02 1.149e-02 
*LOADS
*RC r_y_data_reg_14_:D 2.930e-04
*RC o_Y_DATA\[14\] 2.930e-04
*END

*R_NET o_Y_DATA\[13\] 2.298e-02
*DRIVER o_Y_DATA_reg_13_:Q
*CELL fd2qd1_hd
*C2_R1_C1 1.149e-02 1.275e-02 1.149e-02 
*LOADS
*RC r_y_data_reg_13_:D 2.930e-04
*RC o_Y_DATA\[13\] 2.930e-04
*END

*R_NET o_Y_DATA\[12\] 2.298e-02
*DRIVER o_Y_DATA_reg_12_:Q
*CELL fd2qd1_hd
*C2_R1_C1 1.149e-02 1.275e-02 1.149e-02 
*LOADS
*RC r_y_data_reg_12_:D 2.930e-04
*RC o_Y_DATA\[12\] 2.930e-04
*END

*R_NET o_Y_DATA\[11\] 2.298e-02
*DRIVER o_Y_DATA_reg_11_:Q
*CELL fd2qd1_hd
*C2_R1_C1 1.149e-02 1.275e-02 1.149e-02 
*LOADS
*RC r_y_data_reg_11_:D 2.930e-04
*RC o_Y_DATA\[11\] 2.930e-04
*END

*R_NET o_Y_DATA\[10\] 2.298e-02
*DRIVER o_Y_DATA_reg_10_:Q
*CELL fd2qd1_hd
*C2_R1_C1 1.149e-02 1.275e-02 1.149e-02 
*LOADS
*RC r_y_data_reg_10_:D 2.930e-04
*RC o_Y_DATA\[10\] 2.930e-04
*END

*R_NET o_Y_DATA\[9\] 2.298e-02
*DRIVER o_Y_DATA_reg_9_:Q
*CELL fd2qd1_hd
*C2_R1_C1 1.149e-02 1.275e-02 1.149e-02 
*LOADS
*RC r_y_data_reg_9_:D 2.930e-04
*RC o_Y_DATA\[9\] 2.930e-04
*END

*R_NET o_Y_DATA\[8\] 2.298e-02
*DRIVER o_Y_DATA_reg_8_:Q
*CELL fd2qd1_hd
*C2_R1_C1 1.149e-02 1.275e-02 1.149e-02 
*LOADS
*RC r_y_data_reg_8_:D 2.930e-04
*RC o_Y_DATA\[8\] 2.930e-04
*END

*R_NET o_Y_DATA\[7\] 2.298e-02
*DRIVER o_Y_DATA_reg_7_:Q
*CELL fd2qd1_hd
*C2_R1_C1 1.149e-02 1.275e-02 1.149e-02 
*LOADS
*RC r_y_data_reg_7_:D 2.930e-04
*RC o_Y_DATA\[7\] 2.930e-04
*END

*R_NET o_Y_DATA\[6\] 2.298e-02
*DRIVER o_Y_DATA_reg_6_:Q
*CELL fd2qd1_hd
*C2_R1_C1 1.149e-02 1.275e-02 1.149e-02 
*LOADS
*RC r_y_data_reg_6_:D 2.930e-04
*RC o_Y_DATA\[6\] 2.930e-04
*END

*R_NET o_Y_DATA\[5\] 2.298e-02
*DRIVER o_Y_DATA_reg_5_:Q
*CELL fd2qd1_hd
*C2_R1_C1 1.149e-02 1.275e-02 1.149e-02 
*LOADS
*RC r_y_data_reg_5_:D 2.930e-04
*RC o_Y_DATA\[5\] 2.930e-04
*END

*R_NET o_Y_DATA\[4\] 2.298e-02
*DRIVER o_Y_DATA_reg_4_:Q
*CELL fd2qd1_hd
*C2_R1_C1 1.149e-02 1.275e-02 1.149e-02 
*LOADS
*RC r_y_data_reg_4_:D 2.930e-04
*RC o_Y_DATA\[4\] 2.930e-04
*END

*R_NET o_Y_DATA\[3\] 2.298e-02
*DRIVER o_Y_DATA_reg_3_:Q
*CELL fd2qd1_hd
*C2_R1_C1 1.149e-02 1.275e-02 1.149e-02 
*LOADS
*RC r_y_data_reg_3_:D 2.930e-04
*RC o_Y_DATA\[3\] 2.930e-04
*END

*R_NET o_Y_DATA\[2\] 2.298e-02
*DRIVER o_Y_DATA_reg_2_:Q
*CELL fd2qd1_hd
*C2_R1_C1 1.149e-02 1.275e-02 1.149e-02 
*LOADS
*RC r_y_data_reg_2_:D 2.930e-04
*RC o_Y_DATA\[2\] 2.930e-04
*END

*R_NET o_Y_DATA\[1\] 2.298e-02
*DRIVER o_Y_DATA_reg_1_:Q
*CELL fd2qd1_hd
*C2_R1_C1 1.149e-02 1.275e-02 1.149e-02 
*LOADS
*RC r_y_data_reg_1_:D 2.930e-04
*RC o_Y_DATA\[1\] 2.930e-04
*END

*R_NET o_Y_DATA\[0\] 2.298e-02
*DRIVER o_Y_DATA_reg_0_:Q
*CELL fd2qd1_hd
*C2_R1_C1 1.149e-02 1.275e-02 1.149e-02 
*LOADS
*RC r_y_data_reg_0_:D 2.930e-04
*RC o_Y_DATA\[0\] 2.930e-04
*END

*R_NET i_X_DATA_VALID 2.331e-02
*DRIVER i_X_DATA_VALID
*CELL fd4qd1_hd
*C2_R1_C1 1.165e-02 1.469e-02 1.165e-02 
*LOADS
*RC U157:A 3.424e-04
*RC U159:A 3.424e-04
*END

*R_NET i_Y_ACK 1.504e-02
*DRIVER i_Y_ACK
*CELL fd4qd1_hd
*C2_R1_C1 7.520e-03 1.275e-02 7.520e-03 
*LOADS
*RC U2700:B 1.918e-04
*END

*R_NET i_CLK 1.709e-01
*DRIVER i_CLK
*CELL NULL
*C2_R1_C1 8.546e-02 0.000e+00 8.546e-02 
*LOADS
*RC clk_gate_r_y_data_reg_101__0/latch:CK 0.000e+00
*RC clk_gate_r_mult_2_B_reg_31__0/latch:CK 0.000e+00
*RC clk_gate_r_add_2_B_reg_31__0/latch:CK 0.000e+00
*RC clk_gate_r_add_1_B_reg_31__0/latch:CK 0.000e+00
*RC clk_gate_r_mult_3_B_reg_22__0/latch:CK 0.000e+00
*RC clk_gate_o_Y_DATA_reg_31__0/latch:CK 0.000e+00
*RC clk_gate_r_mult_2_AB_STB_reg_0/latch:CK 0.000e+00
*RC clk_gate_r_counter_reg_2__0/latch:CK 0.000e+00
*RC mult_3/clk_gate_clk_r_REG0_S1_0/latch:CK 0.000e+00
*RC mult_3/clk_gate_clk_r_REG8_S4_0/latch:CK 0.000e+00
*RC mult_3/clk_gate_clk_r_REG7_S3_0/latch:CK 0.000e+00
*RC mult_3/clk_gate_clk_r_REG159_S6_0/latch:CK 0.000e+00
*RC mult_3/clk_gate_clk_r_REG188_S4_0/latch:CK 0.000e+00
*RC mult_3/clk_gate_clk_r_REG169_S4_0/latch:CK 0.000e+00
*RC mult_3/clk_gate_clk_r_REG131_S31_0/latch:CK 0.000e+00
*RC mult_3/clk_gate_clk_r_REG97_S5_0/latch:CK 0.000e+00
*RC mult_3/clk_gate_clk_r_REG98_S4_0/latch:CK 0.000e+00
*RC mult_2/clk_gate_clk_r_REG0_S1_0/latch:CK 0.000e+00
*RC mult_2/clk_gate_clk_r_REG8_S4_0/latch:CK 0.000e+00
*RC mult_2/clk_gate_clk_r_REG7_S3_0/latch:CK 0.000e+00
*RC mult_2/clk_gate_clk_r_REG159_S6_0/latch:CK 0.000e+00
*RC mult_2/clk_gate_clk_r_REG188_S4_0/latch:CK 0.000e+00
*RC mult_2/clk_gate_clk_r_REG169_S4_0/latch:CK 0.000e+00
*RC mult_2/clk_gate_clk_r_REG131_S31_0/latch:CK 0.000e+00
*RC mult_2/clk_gate_clk_r_REG97_S5_0/latch:CK 0.000e+00
*RC mult_2/clk_gate_clk_r_REG98_S4_0/latch:CK 0.000e+00
*RC mult_1/clk_gate_clk_r_REG0_S1_0/latch:CK 0.000e+00
*RC mult_1/clk_gate_clk_r_REG8_S4_0/latch:CK 0.000e+00
*RC mult_1/clk_gate_clk_r_REG7_S3_0/latch:CK 0.000e+00
*RC mult_1/clk_gate_clk_r_REG159_S6_0/latch:CK 0.000e+00
*RC mult_1/clk_gate_clk_r_REG188_S4_0/latch:CK 0.000e+00
*RC mult_1/clk_gate_clk_r_REG169_S4_0/latch:CK 0.000e+00
*RC mult_1/clk_gate_clk_r_REG131_S31_0/latch:CK 0.000e+00
*RC mult_1/clk_gate_clk_r_REG97_S5_0/latch:CK 0.000e+00
*RC mult_1/clk_gate_clk_r_REG98_S4_0/latch:CK 0.000e+00
*RC add_2/clk_gate_clk_r_REG247_S1/latch:CK 0.000e+00
*RC add_2/clk_gate_clk_r_REG22_S21_0/latch:CK 0.000e+00
*RC add_2/clk_gate_clk_r_REG21_S22_0/latch:CK 0.000e+00
*RC add_2/clk_gate_clk_r_REG110_S3_0/latch:CK 0.000e+00
*RC add_2/clk_gate_clk_r_REG123_S2_0/latch:CK 0.000e+00
*RC add_2/clk_gate_clk_r_REG142_S5_0/latch:CK 0.000e+00
*RC add_2/clk_gate_clk_r_REG75_S11_0/latch:CK 0.000e+00
*RC add_2/clk_gate_clk_r_REG182_S5_0/latch:CK 0.000e+00
*RC add_2/clk_gate_clk_r_REG212_S5/latch:CK 0.000e+00
*RC add_2/clk_gate_clk_r_REG213_S5/latch:CK 0.000e+00
*RC add_2/clk_gate_clk_r_REG74_S10_0/latch:CK 0.000e+00
*RC add_1/clk_gate_clk_r_REG247_S1/latch:CK 0.000e+00
*RC add_1/clk_gate_clk_r_REG22_S21_0/latch:CK 0.000e+00
*RC add_1/clk_gate_clk_r_REG21_S22_0/latch:CK 0.000e+00
*RC add_1/clk_gate_clk_r_REG110_S3_0/latch:CK 0.000e+00
*RC add_1/clk_gate_clk_r_REG123_S2_0/latch:CK 0.000e+00
*RC add_1/clk_gate_clk_r_REG142_S5_0/latch:CK 0.000e+00
*RC add_1/clk_gate_clk_r_REG75_S11_0/latch:CK 0.000e+00
*RC add_1/clk_gate_clk_r_REG182_S5_0/latch:CK 0.000e+00
*RC add_1/clk_gate_clk_r_REG212_S5/latch:CK 0.000e+00
*RC add_1/clk_gate_clk_r_REG213_S5/latch:CK 0.000e+00
*RC add_1/clk_gate_clk_r_REG74_S10_0/latch:CK 0.000e+00
*RC mult_3/clk_r_REG266_S1:CK 0.000e+00
*RC mult_3/clk_r_REG265_S1:CK 0.000e+00
*RC mult_3/clk_r_REG203_S4:CK 0.000e+00
*RC mult_3/clk_r_REG202_S4:CK 0.000e+00
*RC mult_3/clk_r_REG9_S3:CK 0.000e+00
*RC mult_3/clk_r_REG201_S4:CK 0.000e+00
*RC mult_2/clk_r_REG201_S4:CK 0.000e+00
*RC mult_2/clk_r_REG266_S1:CK 0.000e+00
*RC mult_2/clk_r_REG265_S1:CK 0.000e+00
*RC mult_2/clk_r_REG203_S4:CK 0.000e+00
*RC mult_2/clk_r_REG202_S4:CK 0.000e+00
*RC mult_2/clk_r_REG9_S3:CK 0.000e+00
*RC mult_1/clk_r_REG266_S1:CK 0.000e+00
*RC mult_1/clk_r_REG265_S1:CK 0.000e+00
*RC mult_1/clk_r_REG203_S4:CK 0.000e+00
*RC mult_1/clk_r_REG202_S4:CK 0.000e+00
*RC mult_1/clk_r_REG9_S3:CK 0.000e+00
*RC mult_1/clk_r_REG201_S4:CK 0.000e+00
*RC add_2/clk_r_REG279_S1:CK 0.000e+00
*RC add_2/clk_r_REG278_S1:CK 0.000e+00
*RC add_2/clk_r_REG214_S5:CK 0.000e+00
*RC add_2/clk_r_REG124_S3:CK 0.000e+00
*RC add_2/clk_r_REG125_S3:CK 0.000e+00
*RC add_2/clk_r_REG135_S4:CK 0.000e+00
*RC add_2/clk_r_REG136_S4:CK 0.000e+00
*RC add_1/clk_r_REG279_S1:CK 0.000e+00
*RC add_1/clk_r_REG278_S1:CK 0.000e+00
*RC add_1/clk_r_REG214_S5:CK 0.000e+00
*RC add_1/clk_r_REG124_S3:CK 0.000e+00
*RC add_1/clk_r_REG125_S3:CK 0.000e+00
*RC add_1/clk_r_REG135_S4:CK 0.000e+00
*RC add_1/clk_r_REG136_S4:CK 0.000e+00
*RC async_rst_synchronizer/r_ff_reg:CK 0.000e+00
*RC async_rst_synchronizer/o_RST_reg:CK 0.000e+00
*RC r_mult_3_Z_ACK_reg:CK 0.000e+00
*RC R_7:CK 0.000e+00
*RC r_pstate_reg_0_:CK 0.000e+00
*RC o_Y_DATA_VALID_reg:CK 0.000e+00
*RC r_pstate_reg_1_:CK 0.000e+00
*RC async_rstn_synchronizer/r_ff_reg:CK 0.000e+00
*RC async_rstn_synchronizer/o_RSTN_reg:CK 0.000e+00
*END

*R_NET o_X_DATA_READY 3.945e-02
*DRIVER o_X_DATA_READY_reg:Q
*CELL fd1eqd1_hd
*C2_R1_C1 1.972e-02 1.924e-02 1.972e-02 
*LOADS
*RC U157:B 7.590e-04
*RC U159:B 7.590e-04
*RC o_X_DATA_READY 7.590e-04
*END

*R_NET o_Y_DATA_VALID 3.932e-02
*DRIVER o_Y_DATA_VALID_reg:Q
*CELL fd2qd1_hd
*C2_R1_C1 1.966e-02 1.924e-02 1.966e-02 
*LOADS
*RC U80:D0 7.565e-04
*RC U2700:A 7.565e-04
*RC o_Y_DATA_VALID 7.565e-04
*END

*R_NET w_rstn 4.697e-02
*DRIVER async_rstn_synchronizer/o_RSTN_reg:Q
*CELL fd2qd1_hd
*C2_R1_C1 2.348e-02 2.097e-02 2.348e-02 
*LOADS
*RC U1212:A 9.850e-04
*RC U2483:A 9.850e-04
*RC U1990:A 9.850e-04
*RC U2539:A 9.850e-04
*RC U1969:B 9.850e-04
*RC U2542:A 9.850e-04
*END

*R_NET w_rst 6.940e-03
*DRIVER async_rst_synchronizer/o_RST_reg:Q
*CELL fd3qd1_hd
*C2_R1_C1 3.470e-03 7.940e-03 3.470e-03 
*LOADS
*RC U125:A 5.510e-05
*END

*R_NET w_add_1_AB_ACK 1.345e-02
*DRIVER add_1/clk_r_REG278_S1:Q
*CELL fd1eqd1_hd
*C2_R1_C1 6.725e-03 1.157e-02 6.725e-03 
*LOADS
*RC add_1/U489:B 1.556e-04
*RC U1229:A 1.556e-04
*END

*R_NET w_add_2_AB_ACK 1.360e-02
*DRIVER add_2/clk_r_REG278_S1:Q
*CELL fd1eqd1_hd
*C2_R1_C1 6.800e-03 1.157e-02 6.800e-03 
*LOADS
*RC add_2/U489:B 1.574e-04
*RC U1229:B 1.574e-04
*END

*R_NET w_add_AB_ACK 5.700e-03
*DRIVER U1229:Y
*CELL ad2d1_hd
*C2_R1_C1 2.850e-03 7.940e-03 2.850e-03 
*LOADS
*RC U2699:B 4.526e-05
*END

*R_NET w_add_1_Z_STB 3.114e-02
*DRIVER add_1/clk_r_REG279_S1:Q
*CELL fd1eqd1_hd
*C2_R1_C1 1.557e-02 1.824e-02 1.557e-02 
*LOADS
*RC add_1/U329:B 5.680e-04
*RC U1292:A 5.680e-04
*RC U315:B 5.680e-04
*RC U301:C 5.680e-04
*END

*R_NET w_add_2_Z_STB 1.360e-02
*DRIVER add_2/clk_r_REG279_S1:Q
*CELL fd1eqd1_hd
*C2_R1_C1 6.800e-03 1.157e-02 6.800e-03 
*LOADS
*RC add_2/U329:B 1.574e-04
*RC U1292:B 1.574e-04
*END

*R_NET w_add_Z_STB 4.778e-02
*DRIVER U1292:Y
*CELL ad2d1_hd
*C2_R1_C1 2.389e-02 2.097e-02 2.389e-02 
*LOADS
*RC U329:B 1.002e-03
*RC U1991:A 1.002e-03
*RC U1245:A 1.002e-03
*RC U1239:A 1.002e-03
*RC U328:A 1.002e-03
*RC U300:A 1.002e-03
*END

*R_NET r_add_1_AB_STB 5.710e-03
*DRIVER r_add_1_AB_STB_reg:Q
*CELL fd2qd1_hd
*C2_R1_C1 2.855e-03 7.940e-03 2.855e-03 
*LOADS
*RC add_1/U489:A 4.534e-05
*END

*R_NET r_add_1_Z_ACK 1.392e-02
*DRIVER r_add_1_Z_ACK_reg:Q
*CELL fd2qd1_hd
*C2_R1_C1 6.960e-03 1.157e-02 6.960e-03 
*LOADS
*RC U1965:D0 1.611e-04
*RC add_1/U329:A 1.611e-04
*END

*R_NET r_add_2_AB_STB 5.710e-03
*DRIVER r_add_2_AB_STB_reg:Q
*CELL fd2qd1_hd
*C2_R1_C1 2.855e-03 7.940e-03 2.855e-03 
*LOADS
*RC add_2/U489:A 4.534e-05
*END

*R_NET r_add_2_Z_ACK 1.392e-02
*DRIVER r_add_2_Z_ACK_reg:Q
*CELL fd2qd1_hd
*C2_R1_C1 6.960e-03 1.157e-02 6.960e-03 
*LOADS
*RC U1359:D0 1.611e-04
*RC add_2/U329:A 1.611e-04
*END

*R_NET w_mult_1_Z_STB 1.907e-02
*DRIVER mult_1/clk_r_REG266_S1:Q
*CELL fd1eqd1_hd
*C2_R1_C1 9.535e-03 1.366e-02 9.535e-03 
*LOADS
*RC mult_1/U247:B 2.605e-04
*RC U1242:A 2.605e-04
*RC U1239:B 2.605e-04
*END

*R_NET w_mult_2_Z_STB 1.922e-02
*DRIVER mult_2/clk_r_REG266_S1:Q
*CELL fd1eqd1_hd
*C2_R1_C1 9.610e-03 1.366e-02 9.610e-03 
*LOADS
*RC mult_2/U247:B 2.625e-04
*RC U1242:B 2.625e-04
*RC U1238:B 2.625e-04
*END

*R_NET w_mult_3_Z_STB 1.360e-02
*DRIVER mult_3/clk_r_REG266_S1:Q
*CELL fd1eqd1_hd
*C2_R1_C1 6.800e-03 1.157e-02 6.800e-03 
*LOADS
*RC mult_3/U247:B 1.574e-04
*RC U1241:B 1.574e-04
*END

*R_NET w_mult_Z_STB 5.250e-03
*DRIVER U1241:Y
*CELL ad2d1_hd
*C2_R1_C1 2.625e-03 7.940e-03 2.625e-03 
*LOADS
*RC U1991:B 4.168e-05
*END

*R_NET w_mult_1_AB_ACK 1.345e-02
*DRIVER mult_1/clk_r_REG265_S1:Q
*CELL fd1eqd1_hd
*C2_R1_C1 6.725e-03 1.157e-02 6.725e-03 
*LOADS
*RC mult_1/U248:B 1.556e-04
*RC U1231:A 1.556e-04
*END

*R_NET w_mult_2_AB_ACK 1.360e-02
*DRIVER mult_2/clk_r_REG265_S1:Q
*CELL fd1eqd1_hd
*C2_R1_C1 6.800e-03 1.157e-02 6.800e-03 
*LOADS
*RC mult_2/U248:B 1.574e-04
*RC U1231:B 1.574e-04
*END

*R_NET w_mult_3_AB_ACK 1.360e-02
*DRIVER mult_3/clk_r_REG265_S1:Q
*CELL fd1eqd1_hd
*C2_R1_C1 6.800e-03 1.157e-02 6.800e-03 
*LOADS
*RC mult_3/U248:B 1.574e-04
*RC U1230:B 1.574e-04
*END

*R_NET w_mult_AB_ACK 5.710e-03
*DRIVER U1230:Y
*CELL ad2d1_hd
*C2_R1_C1 2.855e-03 7.940e-03 2.855e-03 
*LOADS
*RC U2699:A 4.534e-05
*END

*R_NET r_mult_3_AB_STB 5.710e-03
*DRIVER r_mult_3_AB_STB_reg:Q
*CELL fd1eqd1_hd
*C2_R1_C1 2.855e-03 7.940e-03 2.855e-03 
*LOADS
*RC mult_3/U248:A 4.534e-05
*END

*R_NET r_mult_3_Z_ACK 1.985e-02
*DRIVER r_mult_3_Z_ACK_reg:Q
*CELL fd2qd1_hd
*C2_R1_C1 9.925e-03 1.366e-02 9.925e-03 
*LOADS
*RC U13:D0 2.712e-04
*RC U1575:D0 2.712e-04
*RC mult_3/U247:A 2.712e-04
*END

*R_NET N25 2.072e-02
*DRIVER U1991:Y
*CELL ad2d1_hd
*C2_R1_C1 1.036e-02 1.366e-02 1.036e-02 
*LOADS
*RC U1992:A 2.830e-04
*RC U1225:A 2.830e-04
*RC U301:A 2.830e-04
*END

*R_NET N32 3.199e-02
*DRIVER U168:Y
*CELL ivd1_hd
*C2_R1_C1 1.599e-02 1.824e-02 1.599e-02 
*LOADS
*RC U134:A 5.835e-04
*RC U175:B 5.835e-04
*RC U172:D 5.835e-04
*RC U1288:A 5.835e-04
*END

*R_NET N33 3.319e-02
*DRIVER U2664:Y
*CELL ivd1_hd
*C2_R1_C1 1.660e-02 1.824e-02 1.660e-02 
*LOADS
*RC U172:B 6.054e-04
*RC U171:B 6.054e-04
*RC U2698:B 6.054e-04
*RC U1288:B 6.054e-04
*END

*R_NET N34 1.934e-02
*DRIVER U1288:Y
*CELL ad2d1_hd
*C2_R1_C1 9.670e-03 1.366e-02 9.670e-03 
*LOADS
*RC U2714:A 2.642e-04
*RC U2713:A 2.642e-04
*RC U1969:A 2.642e-04
*END

*R_NET N37 1.747e-02
*DRIVER U134:Y
*CELL or2d1_hd
*C2_R1_C1 8.735e-03 1.157e-02 8.735e-03 
*LOADS
*RC U135:A 2.021e-04
*RC U170:A 2.021e-04
*END

*R_NET N44 5.585e-02
*DRIVER U2:Y
*CELL ivd1_hd
*C2_R1_C1 2.792e-02 2.162e-02 2.792e-02 
*LOADS
*RC U2718:A 1.207e-03
*RC U2717:A 1.207e-03
*RC U1236:A 1.207e-03
*RC U1233:A 1.207e-03
*RC U301:B 1.207e-03
*RC U300:D 1.207e-03
*RC U298:B 1.207e-03
*END

*R_NET N45 4.654e-02
*DRIVER U1237:Y
*CELL ivd1_hd
*C2_R1_C1 2.327e-02 2.097e-02 2.327e-02 
*LOADS
*RC U2001:B 9.759e-04
*RC U2000:B 9.759e-04
*RC U1999:B 9.759e-04
*RC U1998:B 9.759e-04
*RC U1236:B 9.759e-04
*RC U1233:B 9.759e-04
*END

*R_NET N46 1.247e-01
*DRIVER U6:Y
*CELL ivd2_hd
*C2_R1_C1 6.234e-02 3.283e-02 6.234e-02 
*LOADS
*RC U9:B 4.094e-03
*RC U123:B 4.094e-03
*RC U129:B 4.094e-03
*RC U504:AN 4.094e-03
*RC U505:B 4.094e-03
*RC U506:AN 4.094e-03
*RC U507:B 4.094e-03
*RC U508:AN 4.094e-03
*RC U509:B 4.094e-03
*RC U510:AN 4.094e-03
*RC U511:B 4.094e-03
*RC U512:AN 4.094e-03
*RC U513:B 4.094e-03
*RC U514:AN 4.094e-03
*RC U515:B 4.094e-03
*RC U516:AN 4.094e-03
*RC U517:B 4.094e-03
*RC U2674:B 4.094e-03
*RC U1235:B 4.094e-03
*RC U1232:B 4.094e-03
*RC U300:B 4.094e-03
*END

*R_NET N47 5.100e-03
*DRIVER U1233:Y
*CELL ad2d1_hd
*C2_R1_C1 2.550e-03 7.940e-03 2.550e-03 
*LOADS
*RC U1232:A 4.049e-05
*END

*R_NET N48 4.727e-02
*DRIVER U1232:Y
*CELL ad2d1_hd
*C2_R1_C1 2.363e-02 2.097e-02 2.363e-02 
*LOADS
*RC U1971:A 9.913e-04
*RC U1930:A 9.913e-04
*RC U1283:A 9.913e-04
*RC U1228:B 9.913e-04
*RC U843:B 9.913e-04
*RC U293:AN 9.913e-04
*END

*R_NET N49 6.030e-03
*DRIVER U2719:Y
*CELL or2d1_hd
*C2_R1_C1 3.015e-03 7.940e-03 3.015e-03 
*LOADS
*RC U9:A 4.788e-05
*END

*R_NET N52 6.030e-03
*DRIVER U2001:Y
*CELL or2d1_hd
*C2_R1_C1 3.015e-03 7.940e-03 3.015e-03 
*LOADS
*RC U2669:A 4.788e-05
*END

*R_NET N55 6.030e-03
*DRIVER U2000:Y
*CELL or2d1_hd
*C2_R1_C1 3.015e-03 7.940e-03 3.015e-03 
*LOADS
*RC U2674:A 4.788e-05
*END

*R_NET N58 6.030e-03
*DRIVER U2718:Y
*CELL or2d1_hd
*C2_R1_C1 3.015e-03 7.940e-03 3.015e-03 
*LOADS
*RC U2709:A 4.788e-05
*END

*R_NET N66 5.240e-03
*DRIVER U293:Y
*CELL nd2bd1_hd
*C2_R1_C1 2.620e-03 7.940e-03 2.620e-03 
*LOADS
*RC U311:B 4.161e-05
*END

*R_NET N131 5.430e-03
*DRIVER U1930:Y
*CELL or4d1_hd
*C2_R1_C1 2.715e-03 7.940e-03 2.715e-03 
*LOADS
*RC U340:AN 4.311e-05
*END

*R_NET N196 5.430e-03
*DRIVER U1283:Y
*CELL or3d1_hd
*C2_R1_C1 2.715e-03 7.940e-03 2.715e-03 
*LOADS
*RC U339:AN 4.311e-05
*END

*R_NET N325 5.430e-03
*DRIVER U1971:Y
*CELL or2d1_hd
*C2_R1_C1 2.715e-03 7.940e-03 2.715e-03 
*LOADS
*RC U341:AN 4.311e-05
*END

*R_NET N714 5.988e-02
*DRIVER U1236:Y
*CELL ad2d1_hd
*C2_R1_C1 2.994e-02 2.379e-02 2.994e-02 
*LOADS
*RC U60:B 1.425e-03
*RC U62:B 1.425e-03
*RC U65:B 1.425e-03
*RC U67:B 1.425e-03
*RC U69:B 1.425e-03
*RC U71:B 1.425e-03
*RC U93:B 1.425e-03
*RC U1235:A 1.425e-03
*END

*R_NET N715 3.500e-02
*DRIVER U1235:Y
*CELL ad2d1_hd
*C2_R1_C1 1.750e-02 1.824e-02 1.750e-02 
*LOADS
*RC U110:A 6.384e-04
*RC U111:A 6.384e-04
*RC U124:A 6.384e-04
*RC U1240:B 6.384e-04
*END

*R_NET N716 7.375e-02
*DRIVER U2720:Y
*CELL or2d1_hd
*C2_R1_C1 3.688e-02 2.379e-02 3.688e-02 
*LOADS
*RC U129:A 1.755e-03
*RC U504:B 1.755e-03
*RC U506:B 1.755e-03
*RC U508:B 1.755e-03
*RC U510:B 1.755e-03
*RC U512:B 1.755e-03
*RC U514:B 1.755e-03
*RC U516:B 1.755e-03
*END

*R_NET N719 1.240e-02
*DRIVER U1999:Y
*CELL or2d1_hd
*C2_R1_C1 6.200e-03 7.940e-03 6.200e-03 
*LOADS
*RC U127:A 9.846e-05
*END

*R_NET N722 5.490e-03
*DRIVER U1998:Y
*CELL or2d1_hd
*C2_R1_C1 2.745e-03 7.940e-03 2.745e-03 
*LOADS
*RC U123:A 4.359e-05
*END

*R_NET N723 2.478e-02
*DRIVER U123:Y
*CELL or2d1_hd
*C2_R1_C1 1.239e-02 1.157e-02 1.239e-02 
*LOADS
*RC U122:A 2.867e-04
*RC U2005:B 2.867e-04
*END

*R_NET N725 6.030e-03
*DRIVER U2717:Y
*CELL or2d1_hd
*C2_R1_C1 3.015e-03 7.940e-03 3.015e-03 
*LOADS
*RC U2688:A 4.788e-05
*END

*R_NET N730 5.430e-03
*DRIVER add_x_1_U2:S
*CELL had1_hd
*C2_R1_C1 2.715e-03 7.940e-03 2.715e-03 
*LOADS
*RC U851:AN 4.311e-05
*END

*R_NET N731 5.430e-03
*DRIVER U1997:Y
*CELL xo2d1_hd
*C2_R1_C1 2.715e-03 7.940e-03 2.715e-03 
*LOADS
*RC U850:AN 4.311e-05
*END

*R_NET N739 1.453e-02
*DRIVER U1238:Y
*CELL ad2d1_hd