*SPEF "IEEE 1481-1999"
*DESIGN "uart_rx"
<<<<<<< HEAD
*DATE "Wed May 13 09:57:29 2020"
=======
*DATE "Wed May 13 11:40:38 2020"
>>>>>>> jin
*VENDOR "SYNOPSYS INC"
*PROGRAM "Synopsys Design Compiler cmos"
*VERSION "F-2011.09-SP5-3"
*DESIGN_FLOW "SYNTHESIS"
*DIVIDER /
*DELIMITER :
*BUS_DELIMITER []
*T_UNIT 1.0 NS
*C_UNIT 1.0 PF
*R_UNIT 1.0 KOHM
*L_UNIT 1.0 HENRY

*PORTS

i_CLK I *L 0.000e+00 *S 0.000e+00 0.000e+00 
i_RST I *L 0.000e+00 *S 0.000e+00 0.000e+00 
i_Rx_Serial I *L 0.000e+00 *S 0.000e+00 0.000e+00 
o_Rx_DV O *L 0.000e+00 *S 6.899e-02 1.003e-01 
o_Rx_Byte\[7\] O *L 0.000e+00 *S 7.261e-02 1.048e-01 
o_Rx_Byte\[6\] O *L 0.000e+00 *S 3.294e-02 5.097e-02 
o_Rx_Byte\[5\] O *L 0.000e+00 *S 3.294e-02 5.097e-02 
o_Rx_Byte\[4\] O *L 0.000e+00 *S 3.294e-02 5.097e-02 
o_Rx_Byte\[3\] O *L 0.000e+00 *S 6.821e-02 9.928e-02 
o_Rx_Byte\[2\] O *L 0.000e+00 *S 3.294e-02 5.097e-02 
o_Rx_Byte\[1\] O *L 0.000e+00 *S 3.294e-02 5.097e-02 
o_Rx_Byte\[0\] O *L 0.000e+00 *S 3.294e-02 5.097e-02 

*R_NET i_CLK 1.389e-01
*DRIVER i_CLK
*CELL NULL
*C2_R1_C1 6.947e-02 3.748e-02 6.947e-02 
*LOADS
*RC r_Clock_Count_reg_12_:CK 5.208e-03
*RC r_Rx_Data_reg:CK 5.208e-03
*RC r_Rx_Data_R_reg:CK 5.208e-03
*RC r_Clock_Count_reg_15_:CK 5.208e-03
*RC r_Clock_Count_reg_14_:CK 5.208e-03
*RC r_Clock_Count_reg_13_:CK 5.208e-03
*RC r_Clock_Count_reg_11_:CK 5.208e-03
*RC r_Clock_Count_reg_1_:CK 5.208e-03
*RC r_Clock_Count_reg_2_:CK 5.208e-03
*RC r_Clock_Count_reg_6_:CK 5.208e-03
*RC r_Clock_Count_reg_4_:CK 5.208e-03
*RC r_Clock_Count_reg_8_:CK 5.208e-03
*RC r_Clock_Count_reg_10_:CK 5.208e-03
*RC r_Clock_Count_reg_3_:CK 5.208e-03
*RC r_Clock_Count_reg_5_:CK 5.208e-03
*RC r_Clock_Count_reg_7_:CK 5.208e-03
*RC r_Clock_Count_reg_9_:CK 5.208e-03
*RC r_Clock_Count_reg_0_:CK 5.208e-03
*RC r_Bit_Index_reg_2_:CK 5.208e-03
*RC r_Rx_Byte_reg_0_:CK 5.208e-03
*RC r_Rx_Byte_reg_4_:CK 5.208e-03
*RC r_Rx_Byte_reg_2_:CK 5.208e-03
*RC r_Rx_Byte_reg_6_:CK 5.208e-03
*RC r_Rx_Byte_reg_3_:CK 5.208e-03
*RC r_Rx_Byte_reg_7_:CK 5.208e-03
*RC r_Rx_Byte_reg_1_:CK 5.208e-03
*RC r_Rx_Byte_reg_5_:CK 5.208e-03
*RC r_Rx_DV_reg:CK 5.208e-03
*RC r_SM_Main_reg_2_:CK 5.208e-03
*RC r_SM_Main_reg_1_:CK 5.208e-03
*RC r_Bit_Index_reg_0_:CK 5.208e-03
*RC r_SM_Main_reg_0_:CK 5.208e-03
*RC r_Bit_Index_reg_1_:CK 5.208e-03
*END

*R_NET i_Rx_Serial 4.620e-03
*DRIVER i_Rx_Serial
*CELL NULL
*C2_R1_C1 2.310e-03 7.370e-03 2.310e-03 
*LOADS
*RC r_Rx_Data_R_reg:D 3.405e-05
*END

*R_NET o_Rx_DV 7.140e-03
*DRIVER r_Rx_DV_reg:Q
*CELL fd2d1_hd
*C2_R1_C1 3.570e-03 9.100e-03 3.570e-03 
*LOADS
*RC U168:A 6.497e-05
*RC o_Rx_DV 6.497e-05
*END

*R_NET o_Rx_Byte\[7\] 7.560e-03
*DRIVER r_Rx_Byte_reg_7_:Q
*CELL fd2d1_hd
*C2_R1_C1 3.780e-03 9.100e-03 3.780e-03 
*LOADS
*RC U155:B 6.880e-05
*RC o_Rx_Byte\[7\] 6.880e-05
*END

*R_NET o_Rx_Byte\[6\] 3.150e-03
*DRIVER r_Rx_Byte_reg_6_:Q
*CELL fd2d1_hd
*C2_R1_C1 1.575e-03 7.370e-03 1.575e-03 
*LOADS
*RC o_Rx_Byte\[6\] 2.322e-05
*END

*R_NET o_Rx_Byte\[5\] 3.150e-03
*DRIVER r_Rx_Byte_reg_5_:Q
*CELL fd2d1_hd
*C2_R1_C1 1.575e-03 7.370e-03 1.575e-03 
*LOADS
*RC o_Rx_Byte\[5\] 2.322e-05
*END

*R_NET o_Rx_Byte\[4\] 3.150e-03
*DRIVER r_Rx_Byte_reg_4_:Q
*CELL fd2d1_hd
*C2_R1_C1 1.575e-03 7.370e-03 1.575e-03 
*LOADS
*RC o_Rx_Byte\[4\] 2.322e-05
*END

*R_NET o_Rx_Byte\[3\] 7.050e-03
*DRIVER r_Rx_Byte_reg_3_:Q
*CELL fd2d1_hd
*C2_R1_C1 3.525e-03 9.100e-03 3.525e-03 
*LOADS
*RC U165:C 6.416e-05
*RC o_Rx_Byte\[3\] 6.416e-05
*END

*R_NET o_Rx_Byte\[2\] 3.150e-03
*DRIVER r_Rx_Byte_reg_2_:Q
*CELL fd2d1_hd
*C2_R1_C1 1.575e-03 7.370e-03 1.575e-03 
*LOADS
*RC o_Rx_Byte\[2\] 2.322e-05
*END

*R_NET o_Rx_Byte\[1\] 3.150e-03
*DRIVER r_Rx_Byte_reg_1_:Q
*CELL fd2d1_hd
*C2_R1_C1 1.575e-03 7.370e-03 1.575e-03 
*LOADS
*RC o_Rx_Byte\[1\] 2.322e-05
*END

*R_NET o_Rx_Byte\[0\] 3.150e-03
*DRIVER r_Rx_Byte_reg_0_:Q
*CELL fd2d1_hd
*C2_R1_C1 1.575e-03 7.370e-03 1.575e-03 
*LOADS
*RC o_Rx_Byte\[0\] 2.322e-05
*END

*R_NET r_Rx_Data 1.034e-02
*DRIVER r_Rx_Data_reg:Q
*CELL fd3d1_hd
*C2_R1_C1 5.170e-03 9.100e-03 5.170e-03 
*LOADS
*RC U145:A 9.409e-05
*RC U252:B 9.409e-05
*END

*R_NET r_Rx_Data_R 4.610e-03
*DRIVER r_Rx_Data_R_reg:Q
*CELL fd3qd1_hd
*C2_R1_C1 2.305e-03 7.370e-03 2.305e-03 
*LOADS
*RC r_Rx_Data_reg:D 3.398e-05
*END

*R_NET r_SM_Main_2_ 2.340e-02
*DRIVER r_SM_Main_reg_2_:Q
*CELL fd2d1_hd
*C2_R1_C1 1.170e-02 1.094e-02 1.170e-02 
*LOADS
*RC U128:B 2.560e-04
*RC U139:A 2.560e-04
*RC U180:B 2.560e-04
*RC U249:A 2.560e-04
*END

*R_NET r_Clock_Count\[15\] 1.596e-02
*DRIVER r_Clock_Count_reg_15_:Q
*CELL fd2d1_hd
*C2_R1_C1 7.980e-03 9.460e-03 7.980e-03 
*LOADS
*RC U157:A 1.510e-04
*RC U179:A 1.510e-04
*RC U204:A 1.510e-04
*END

*R_NET r_Clock_Count\[14\] 2.294e-02
*DRIVER r_Clock_Count_reg_14_:Q
*CELL fd2d1_hd
*C2_R1_C1 1.147e-02 1.094e-02 1.147e-02 
*LOADS
*RC U157:C 2.510e-04
*RC U178:D 2.510e-04
*RC U202:A 2.510e-04
*RC U231:A 2.510e-04
*END

*R_NET r_Clock_Count\[13\] 2.240e-02
*DRIVER r_Clock_Count_reg_13_:Q
*CELL fd2d1_hd
*C2_R1_C1 1.120e-02 1.094e-02 1.120e-02 
*LOADS
*RC U158:A 2.451e-04
*RC U179:B 2.451e-04
*RC U194:A 2.451e-04
*RC U203:A 2.451e-04
*END

*R_NET r_Clock_Count\[12\] 6.070e-03
*DRIVER r_Clock_Count_reg_12_:Q
*CELL fd2d1_hd
*C2_R1_C1 3.035e-03 7.370e-03 3.035e-03 
*LOADS
*RC U179:C 4.474e-05
*END

*R_NET r_Clock_Count\[11\] 2.201e-02
*DRIVER r_Clock_Count_reg_11_:Q
*CELL fd2d1_hd
*C2_R1_C1 1.100e-02 1.094e-02 1.100e-02 
*LOADS
*RC U131:A 2.408e-04
*RC U159:A 2.408e-04
*RC U178:C 2.408e-04
*RC U228:A 2.408e-04
*END

*R_NET r_Clock_Count\[10\] 6.040e-03
*DRIVER r_Clock_Count_reg_10_:Q
*CELL fd2d1_hd
*C2_R1_C1 3.020e-03 7.370e-03 3.020e-03 
*LOADS
*RC U178:B 4.451e-05
*END

*R_NET r_Clock_Count\[9\] 2.199e-02
*DRIVER r_Clock_Count_reg_9_:Q
*CELL fd2d1_hd
*C2_R1_C1 1.099e-02 1.094e-02 1.099e-02 
*LOADS
*RC U137:A 2.406e-04
*RC U161:A 2.406e-04
*RC U178:A 2.406e-04
*RC U224:A 2.406e-04
*END

*R_NET r_Clock_Count\[8\] 6.180e-03
*DRIVER r_Clock_Count_reg_8_:Q
*CELL fd2d1_hd
*C2_R1_C1 3.090e-03 7.370e-03 3.090e-03 
*LOADS
*RC U179:D 4.555e-05
*END

*R_NET r_Clock_Count\[7\] 2.658e-02
*DRIVER r_Clock_Count_reg_7_:Q
*CELL fd2d1_hd
*C2_R1_C1 1.329e-02 1.549e-02 1.329e-02 
*LOADS
*RC U136:A 4.117e-04
*RC U164:A 4.117e-04
*RC U177:D 4.117e-04
*RC U190:A 4.117e-04
*RC U220:A 4.117e-04
*END

*R_NET r_Clock_Count\[6\] 1.001e-02
*DRIVER r_Clock_Count_reg_6_:Q
*CELL fd2d1_hd
*C2_R1_C1 5.005e-03 9.100e-03 5.005e-03 
*LOADS
*RC U130:B 9.109e-05
*RC U177:C 9.109e-05
*END

*R_NET r_Clock_Count\[5\] 2.641e-02
*DRIVER r_Clock_Count_reg_5_:Q
*CELL fd2d1_hd
*C2_R1_C1 1.321e-02 1.549e-02 1.321e-02 
*LOADS
*RC U130:A 4.091e-04
*RC U162:A 4.091e-04
*RC U177:A 4.091e-04
*RC U215:A 4.091e-04
*RC U217:A 4.091e-04
*END

*R_NET r_Clock_Count\[4\] 5.520e-03
*DRIVER r_Clock_Count_reg_4_:Q
*CELL fd2d1_hd
*C2_R1_C1 2.760e-03 7.370e-03 2.760e-03 
*LOADS
*RC U189:A 4.068e-05
*END

*R_NET r_Clock_Count\[3\] 9.470e-03
*DRIVER r_Clock_Count_reg_3_:Q
*CELL fd2d1_hd
*C2_R1_C1 4.735e-03 9.100e-03 4.735e-03 
*LOADS
*RC U163:A 8.618e-05
*RC U210:A 8.618e-05
*END

*R_NET r_Clock_Count\[1\] 2.195e-02
*DRIVER r_Clock_Count_reg_1_:Q
*CELL fd2d1_hd
*C2_R1_C1 1.097e-02 1.094e-02 1.097e-02 
*LOADS
*RC U132:B 2.401e-04
*RC U160:C 2.401e-04
*RC U190:C 2.401e-04
*RC U206:A 2.401e-04
*END

*R_NET r_Clock_Count\[0\] 1.563e-02
*DRIVER r_Clock_Count_reg_0_:Q
*CELL fd2d1_hd
*C2_R1_C1 7.815e-03 9.460e-03 7.815e-03 
*LOADS
*RC U132:A 1.479e-04
*RC U160:A 1.479e-04
*RC U190:B 1.479e-04
*END

*R_NET r_Bit_Index_2_ 3.268e-02
*DRIVER r_Bit_Index_reg_2_:Q
*CELL fd2d1_hd
*C2_R1_C1 1.634e-02 1.674e-02 1.634e-02 
*LOADS
*RC U145:B 5.471e-04
*RC U147:A 5.471e-04
*RC U175:B 5.471e-04
*RC U242:B 5.471e-04
*RC U244:B 5.471e-04
*RC U246:B 5.471e-04
*END

*R_NET N201 8.640e-03
*DRIVER U182:Y
*CELL nr2d1_hd
*C2_R1_C1 4.320e-03 9.100e-03 4.320e-03 
*LOADS
*RC r_SM_Main_reg_2_:D 7.862e-05
*RC U168:C 7.862e-05
*END

*R_NET n12 4.620e-03
*DRIVER U169:Y
*CELL scg6d1_hd
*C2_R1_C1 2.310e-03 7.370e-03 2.310e-03 
*LOADS
*RC r_Bit_Index_reg_1_:D 3.405e-05
*END

*R_NET n13 3.241e-02
*DRIVER r_Bit_Index_reg_1_:Q
*CELL fd3qd1_hd
*C2_R1_C1 1.620e-02 1.674e-02 1.620e-02 
*LOADS
*RC U143:A 5.425e-04
*RC U169:A 5.425e-04
*RC U170:A 5.425e-04
*RC U185:A 5.425e-04
*RC U187:A 5.425e-04
*RC U254:C 5.425e-04
*END

*R_NET n32 4.620e-03
*DRIVER U253:Y
*CELL scg20d1_hd
*C2_R1_C1 2.310e-03 7.370e-03 2.310e-03 
*LOADS
*RC r_SM_Main_reg_1_:D 3.405e-05
*END

*R_NET n33 3.704e-02
*DRIVER r_SM_Main_reg_1_:Q
*CELL fd3qd1_hd
*C2_R1_C1 1.852e-02 1.715e-02 1.852e-02 
*LOADS
*RC U128:A 6.352e-04
*RC U140:A 6.352e-04
*RC U148:A 6.352e-04
*RC U181:AN 6.352e-04
*RC U183:A 6.352e-04
*RC U192:A 6.352e-04
*RC U252:C 6.352e-04
*END

*R_NET n35 4.620e-03
*DRIVER U251:Y
*CELL ao211d1_hd
*C2_R1_C1 2.310e-03 7.370e-03 2.310e-03 
*LOADS
*RC r_SM_Main_reg_0_:D 3.405e-05
*END

*R_NET n36 2.202e-02
*DRIVER r_SM_Main_reg_0_:Q
*CELL fd3qd1_hd
*C2_R1_C1 1.101e-02 1.094e-02 1.101e-02 
*LOADS
*RC U148:B 2.409e-04
*RC U174:A 2.409e-04
*RC U180:A 2.409e-04
*RC U183:C 2.409e-04
*END

*R_NET n38 4.620e-03
*DRIVER U248:Y
*CELL ao22d1_hd
*C2_R1_C1 2.310e-03 7.370e-03 2.310e-03 
*LOADS
*RC r_Bit_Index_reg_0_:D 3.405e-05
*END

*R_NET n39 1.684e-02
*DRIVER r_Bit_Index_reg_0_:Q
*CELL fd3qd1_hd
*C2_R1_C1 8.420e-03 9.460e-03 8.420e-03 
*LOADS
*RC U172:A 1.593e-04
*RC U248:A 1.593e-04
*RC U254:B 1.593e-04
*END

*R_NET n93 4.650e-03
*DRIVER U168:Y
*CELL scg6d1_hd
*C2_R1_C1 2.325e-03 7.370e-03 2.325e-03 
*LOADS
*RC r_Rx_DV_reg:D 3.427e-05
*END

*R_NET n94 4.650e-03
*DRIVER U247:Y
*CELL oa22d1_hd
*C2_R1_C1 2.325e-03 7.370e-03 2.325e-03 
*LOADS
*RC r_Rx_Byte_reg_0_:D 3.427e-05
*END

*R_NET n95 4.650e-03
*DRIVER U245:Y
*CELL oa22d1_hd
*C2_R1_C1 2.325e-03 7.370e-03 2.325e-03 
*LOADS
*RC r_Rx_Byte_reg_1_:D 3.427e-05
*END

*R_NET n96 4.650e-03
*DRIVER U243:Y
*CELL oa22d1_hd
*C2_R1_C1 2.325e-03 7.370e-03 2.325e-03 
*LOADS
*RC r_Rx_Byte_reg_2_:D 3.427e-05
*END

*R_NET n97 4.650e-03
*DRIVER U165:Y
*CELL scg2d1_hd
*C2_R1_C1 2.325e-03 7.370e-03 2.325e-03 
*LOADS
*RC r_Rx_Byte_reg_3_:D 3.427e-05
*END

*R_NET n98 4.650e-03
*DRIVER U241:Y
*CELL oa22d1_hd
*C2_R1_C1 2.325e-03 7.370e-03 2.325e-03 
*LOADS
*RC r_Rx_Byte_reg_4_:D 3.427e-05
*END

*R_NET n99 4.650e-03
*DRIVER U239:Y
*CELL oa22d1_hd
*C2_R1_C1 2.325e-03 7.370e-03 2.325e-03 
*LOADS
*RC r_Rx_Byte_reg_5_:D 3.427e-05
*END

*R_NET n100 4.650e-03
*DRIVER U236:Y
*CELL oa22d1_hd
*C2_R1_C1 2.325e-03 7.370e-03 2.325e-03 
*LOADS
*RC r_Rx_Byte_reg_6_:D 3.427e-05
*END

*R_NET n101 4.650e-03
*DRIVER U233:Y
*CELL oa21d1_hd
*C2_R1_C1 2.325e-03 7.370e-03 2.325e-03 
*LOADS
*RC r_Rx_Byte_reg_7_:D 3.427e-05
*END

*R_NET n103 4.650e-03
*DRIVER U231:Y
*CELL ao22d1_hd
*C2_R1_C1 2.325e-03 7.370e-03 2.325e-03 
*LOADS
*RC r_Clock_Count_reg_14_:D 3.427e-05
*END

*R_NET n104 4.650e-03
*DRIVER U158:Y
*CELL scg2d1_hd
*C2_R1_C1 2.325e-03 7.370e-03 2.325e-03 
*LOADS
*RC r_Clock_Count_reg_13_:D 3.427e-05
*END

*R_NET n105 4.650e-03
*DRIVER U230:Y
*CELL oa22d1_hd
*C2_R1_C1 2.325e-03 7.370e-03 2.325e-03 
*LOADS
*RC r_Clock_Count_reg_12_:D 3.427e-05
*END

*R_NET n106 4.650e-03
*DRIVER U159:Y
*CELL scg2d1_hd
*C2_R1_C1 2.325e-03 7.370e-03 2.325e-03 
*LOADS
*RC r_Clock_Count_reg_11_:D 3.427e-05
*END

*R_NET n107 4.650e-03
*DRIVER U226:Y
*CELL oa22d1_hd
*C2_R1_C1 2.325e-03 7.370e-03 2.325e-03 
*LOADS
*RC r_Clock_Count_reg_10_:D 3.427e-05
*END

*R_NET n108 4.650e-03
*DRIVER U161:Y
*CELL scg2d1_hd
*C2_R1_C1 2.325e-03 7.370e-03 2.325e-03 
*LOADS
*RC r_Clock_Count_reg_9_:D 3.427e-05
*END

*R_NET n109 4.650e-03
*DRIVER U222:Y
*CELL oa22d1_hd
*C2_R1_C1 2.325e-03 7.370e-03 2.325e-03 
*LOADS
*RC r_Clock_Count_reg_8_:D 3.427e-05
*END

*R_NET n110 4.650e-03
*DRIVER U164:Y
*CELL scg2d1_hd
*C2_R1_C1 2.325e-03 7.370e-03 2.325e-03 
*LOADS
*RC r_Clock_Count_reg_7_:D 3.427e-05
*END

*R_NET n111 4.650e-03
*DRIVER U218:Y
*CELL oa22d1_hd
*C2_R1_C1 2.325e-03 7.370e-03 2.325e-03 
*LOADS
*RC r_Clock_Count_reg_6_:D 3.427e-05
*END

*R_NET n112 4.650e-03
*DRIVER U162:Y
*CELL scg2d1_hd
*C2_R1_C1 2.325e-03 7.370e-03 2.325e-03 
*LOADS
*RC r_Clock_Count_reg_5_:D 3.427e-05
*END

*R_NET n113 4.650e-03
*DRIVER U212:Y
*CELL oa22d1_hd
*C2_R1_C1 2.325e-03 7.370e-03 2.325e-03 
*LOADS
*RC r_Clock_Count_reg_4_:D 3.427e-05
*END

*R_NET n114 4.650e-03
*DRIVER U163:Y
*CELL scg2d1_hd
*C2_R1_C1 2.325e-03 7.370e-03 2.325e-03 
*LOADS
*RC r_Clock_Count_reg_3_:D 3.427e-05
*END

*R_NET n115 4.650e-03
*DRIVER U208:Y
*CELL oa22d1_hd
*C2_R1_C1 2.325e-03 7.370e-03 2.325e-03 
*LOADS
*RC r_Clock_Count_reg_2_:D 3.427e-05
*END

*R_NET n116 4.650e-03
*DRIVER U160:Y
*CELL scg2d1_hd
*C2_R1_C1 2.325e-03 7.370e-03 2.325e-03 
*LOADS
*RC r_Clock_Count_reg_1_:D 3.427e-05
*END

*R_NET n117 4.650e-03
*DRIVER U205:Y
*CELL oa21d1_hd
*C2_R1_C1 2.325e-03 7.370e-03 2.325e-03 
*LOADS
*RC r_Clock_Count_reg_0_:D 3.427e-05
*END

*R_NET n118 4.650e-03
*DRIVER U157:Y
*CELL scg2d1_hd
*C2_R1_C1 2.325e-03 7.370e-03 2.325e-03 
*LOADS
*RC r_Clock_Count_reg_15_:D 3.427e-05
*END

*R_NET n119 4.650e-03
*DRIVER U187:Y
*CELL oa22d1_hd
*C2_R1_C1 2.325e-03 7.370e-03 2.325e-03 
*LOADS
*RC r_Bit_Index_reg_2_:D 3.427e-05
*END

*R_NET n123 2.370e-02
*DRIVER r_Rx_Data_reg:QN
*CELL fd3d1_hd
*C2_R1_C1 1.185e-02 1.094e-02 1.185e-02 
*LOADS
*RC U175:A 2.593e-04
*RC U199:B 2.593e-04
*RC U233:A 2.593e-04
*RC U251:B 2.593e-04
*END

*R_NET n124 4.740e-03
*DRIVER U179:Y
*CELL nr4d1_hd
*C2_R1_C1 2.370e-03 7.370e-03 2.370e-03 
*LOADS
*RC U166:B 3.493e-05
*END

*R_NET n125 4.590e-03
*DRIVER U178:Y
*CELL nr4d1_hd
*C2_R1_C1 2.295e-03 7.370e-03 2.295e-03 
*LOADS
*RC U166:A 3.383e-05
*END

*R_NET n126 5.200e-03
*DRIVER U177:Y
*CELL oa211d1_hd
*C2_R1_C1 2.600e-03 7.370e-03 2.600e-03 
*LOADS
*RC U146:A 3.832e-05
*END

*R_NET n127 5.810e-03
*DRIVER U186:Y
*CELL ao21d1_hd
*C2_R1_C1 2.905e-03 7.370e-03 2.905e-03 
*LOADS
*RC U187:C 4.282e-05
*END

*R_NET n128 1.050e-02
*DRIVER r_Clock_Count_reg_3_:QN
*CELL fd2d1_hd
*C2_R1_C1 5.250e-03 9.100e-03 5.250e-03 
*LOADS
*RC U176:B 9.555e-05
*RC U189:B 9.555e-05
*END

*R_NET n129 5.740e-03
*DRIVER U190:Y
*CELL nr4d1_hd
*C2_R1_C1 2.870e-03 7.370e-03 2.870e-03 
*LOADS
*RC U191:D 4.230e-05
*END

*R_NET n130 5.740e-03
*DRIVER U188:Y
*CELL ivd1_hd
*C2_R1_C1 2.870e-03 7.370e-03 2.870e-03 
*LOADS
*RC U191:B 4.230e-05
*END

*R_NET n131 1.015e-02
*DRIVER U166:Y
*CELL ad2d1_hd
*C2_R1_C1 5.075e-03 9.100e-03 5.075e-03 
*LOADS
*RC U146:B 9.237e-05
*RC U191:A 9.237e-05
*END

*R_NET n132 1.057e-02
*DRIVER r_SM_Main_reg_2_:QN
*CELL fd2d1_hd
*C2_R1_C1 5.285e-03 9.100e-03 5.285e-03 
*LOADS
*RC U183:D 9.619e-05
*RC U192:B 9.619e-05
*END

*R_NET n133 1.070e-02
*DRIVER U181:Y
*CELL nd2bd1_hd
*C2_R1_C1 5.350e-03 9.100e-03 5.350e-03 
*LOADS
*RC U182:B 9.737e-05
*RC U193:A 9.737e-05
*END

*R_NET n134 1.296e-02
*DRIVER U167:Y
*CELL ivd1_hd
*C2_R1_C1 6.480e-03 9.100e-03 6.480e-03 
*LOADS
*RC U135:A 1.179e-04
*RC U182:A 1.179e-04
*END

*R_NET n135 1.042e-02
*DRIVER U176:Y
*CELL nr2d1_hd
*C2_R1_C1 5.210e-03 9.100e-03 5.210e-03 
*LOADS
*RC U134:A 9.482e-05
*RC U177:B 9.482e-05
*END

*R_NET n136 9.960e-03
*DRIVER U130:Y
*CELL clknd2d1_hd
*C2_R1_C1 4.980e-03 9.100e-03 4.980e-03 
*LOADS
*RC U188:A 9.064e-05
*RC U195:A 9.064e-05
*END

*R_NET n137 1.652e-02
*DRIVER U174:Y
*CELL ivd1_hd
*C2_R1_C1 8.260e-03 9.460e-03 8.260e-03 
*LOADS
*RC U128:C 1.563e-04
*RC U140:B 1.563e-04
*RC U192:C 1.563e-04
*END

*R_NET n138 5.520e-03
*DRIVER U140:Y
*CELL clknd2d1_hd
*C2_R1_C1 2.760e-03 7.370e-03 2.760e-03 
*LOADS
*RC U199:A 4.068e-05
*END

*R_NET n139 1.036e-02
*DRIVER U192:Y
*CELL nd4d1_hd
*C2_R1_C1 5.180e-03 9.100e-03 5.180e-03 
*LOADS
*RC U139:C 9.428e-05
*RC U193:C 9.428e-05
*END

*R_NET n140 5.920e-03
*DRIVER U199:Y
*CELL nr2d1_hd
*C2_R1_C1 2.960e-03 7.370e-03 2.960e-03 
*LOADS
*RC U139:B 4.363e-05
*END

*R_NET n141 4.670e-03
*DRIVER U204:Y
*CELL nr2d1_hd
*C2_R1_C1 2.335e-03 7.370e-03 2.335e-03 
*LOADS
*RC U157:D 3.442e-05
*END

*R_NET n142 4.780e-03
*DRIVER U202:Y
*CELL oa21d1_hd
*C2_R1_C1 2.390e-03 7.370e-03 2.390e-03 
*LOADS
*RC U157:B 3.523e-05
*END

*R_NET n143 1.034e-02
*DRIVER r_Clock_Count_reg_0_:QN
*CELL fd2d1_hd
*C2_R1_C1 5.170e-03 9.100e-03 5.170e-03 
*LOADS
*RC U141:A 9.409e-05
*RC U205:B 9.409e-05
*END

*R_NET n144 9.980e-03
*DRIVER U141:Y
*CELL clknd2d1_hd
*C2_R1_C1 4.990e-03 9.100e-03 4.990e-03 
*LOADS
*RC U133:B 9.082e-05
*RC U205:C 9.082e-05
*END

*R_NET n145 9.530e-03
*DRIVER U133:Y
*CELL clknd2d1_hd
*C2_R1_C1 4.765e-03 9.100e-03 4.765e-03 
*LOADS
*RC U160:D 8.672e-05
*RC U207:B 8.672e-05
*END

*R_NET n146 9.520e-03
*DRIVER U206:Y
*CELL nr2d1_hd
*C2_R1_C1 4.760e-03 9.100e-03 4.760e-03 
*LOADS
*RC U160:B 8.663e-05
*RC U207:A 8.663e-05
*END

*R_NET n147 5.880e-03
*DRIVER U150:Y
*CELL clknd2d1_hd
*C2_R1_C1 2.940e-03 7.370e-03 2.940e-03 
*LOADS
*RC U208:D 4.334e-05
*END

*R_NET n148 1.067e-02
*DRIVER U132:Y
*CELL clknd2d1_hd
*C2_R1_C1 5.335e-03 9.100e-03 5.335e-03 
*LOADS
*RC U173:B 9.710e-05
*RC U208:C 9.710e-05
*END

*R_NET n149 2.328e-02
*DRIVER r_Clock_Count_reg_2_:QN
*CELL fd2d1_hd
*C2_R1_C1 1.164e-02 1.094e-02 1.164e-02 
*LOADS
*RC U150:A 2.547e-04
*RC U173:A 2.547e-04
*RC U190:D 2.547e-04
*RC U208:B 2.547e-04
*END

*R_NET n150 5.790e-03
*DRIVER U207:Y
*CELL nr2d1_hd
*C2_R1_C1 2.895e-03 7.370e-03 2.895e-03 
*LOADS
*RC U208:A 4.267e-05
*END

*R_NET n151 2.147e-02
*DRIVER U173:Y
*CELL nr2d1_hd
*C2_R1_C1 1.073e-02 1.094e-02 1.073e-02 
*LOADS
*RC U134:B 2.349e-04
*RC U151:B 2.349e-04
*RC U163:C 2.349e-04
*RC U209:B 2.349e-04
*END

*R_NET n152 1.019e-02
*DRIVER U189:Y
*CELL nr2d1_hd
*C2_R1_C1 5.095e-03 9.100e-03 5.095e-03 
*LOADS
*RC U151:A 9.273e-05
*RC U191:C 9.273e-05
*END

*R_NET n153 9.640e-03
*DRIVER U209:Y
*CELL oa21d1_hd
*C2_R1_C1 4.820e-03 9.100e-03 4.820e-03 
*LOADS
*RC U163:B 8.772e-05
*RC U211:B 8.772e-05
*END

*R_NET n154 9.410e-03
*DRIVER U210:Y
*CELL nr2d1_hd
*C2_R1_C1 4.705e-03 9.100e-03 4.705e-03 
*LOADS
*RC U163:D 8.563e-05
*RC U211:A 8.563e-05
*END

*R_NET n155 1.062e-02
*DRIVER r_Clock_Count_reg_4_:QN
*CELL fd2d1_hd
*C2_R1_C1 5.310e-03 9.100e-03 5.310e-03 
*LOADS
*RC U176:A 9.664e-05
*RC U212:D 9.664e-05
*END

*R_NET n156 5.810e-03
*DRIVER U211:Y
*CELL nr2d1_hd
*C2_R1_C1 2.905e-03 7.370e-03 2.905e-03 
*LOADS
*RC U212:C 4.282e-05
*END

*R_NET n157 5.890e-03
*DRIVER U151:Y
*CELL clknd2d1_hd
*C2_R1_C1 2.945e-03 7.370e-03 2.945e-03 
*LOADS
*RC U212:B 4.341e-05
*END

*R_NET n158 9.820e-03
*DRIVER U213:Y
*CELL ivd1_hd
*C2_R1_C1 4.910e-03 9.100e-03 4.910e-03 
*LOADS
*RC U162:C 8.936e-05
*RC U214:B 8.936e-05
*END

*R_NET n159 9.640e-03
*DRIVER U214:Y
*CELL oa21d1_hd
*C2_R1_C1 4.820e-03 9.100e-03 4.820e-03 
*LOADS
*RC U162:B 8.772e-05
*RC U216:B 8.772e-05
*END

*R_NET n160 9.410e-03
*DRIVER U215:Y
*CELL nr2d1_hd
*C2_R1_C1 4.705e-03 9.100e-03 4.705e-03 
*LOADS
*RC U162:D 8.563e-05
*RC U216:A 8.563e-05
*END

*R_NET n161 5.880e-03
*DRIVER U217:Y
*CELL nd3d1_hd
*C2_R1_C1 2.940e-03 7.370e-03 2.940e-03 
*LOADS
*RC U218:D 4.334e-05
*END

*R_NET n162 1.633e-02
*DRIVER U134:Y
*CELL clknd2d1_hd
*C2_R1_C1 8.165e-03 9.460e-03 8.165e-03 
*LOADS
*RC U195:B 1.545e-04
*RC U213:A 1.545e-04
*RC U218:C 1.545e-04
*END

*R_NET n163 1.074e-02
*DRIVER r_Clock_Count_reg_6_:QN
*CELL fd2d1_hd
*C2_R1_C1 5.370e-03 9.100e-03 5.370e-03 
*LOADS
*RC U217:B 9.773e-05
*RC U218:B 9.773e-05
*END

*R_NET n164 5.790e-03
*DRIVER U216:Y
*CELL nr2d1_hd
*C2_R1_C1 2.895e-03 7.370e-03 2.895e-03 
*LOADS
*RC U218:A 4.267e-05
*END

*R_NET n165 1.545e-02
*DRIVER U195:Y
*CELL nr2d1_hd
*C2_R1_C1 7.725e-03 9.460e-03 7.725e-03 
*LOADS
*RC U136:B 1.462e-04
*RC U164:C 1.462e-04
*RC U219:B 1.462e-04
*END

*R_NET n166 9.640e-03
*DRIVER U219:Y
*CELL oa21d1_hd
*C2_R1_C1 4.820e-03 9.100e-03 4.820e-03 
*LOADS
*RC U164:B 8.772e-05
*RC U221:B 8.772e-05
*END

*R_NET n167 9.410e-03
*DRIVER U220:Y
*CELL nr2d1_hd
*C2_R1_C1 4.705e-03 9.100e-03 4.705e-03 
*LOADS
*RC U164:D 8.563e-05
*RC U221:A 8.563e-05
*END

*R_NET n168 5.880e-03
*DRIVER U152:Y
*CELL clknd2d1_hd
*C2_R1_C1 2.940e-03 7.370e-03 2.940e-03 
*LOADS
*RC U222:D 4.334e-05
*END

*R_NET n169 1.067e-02
*DRIVER U136:Y
*CELL clknd2d1_hd
*C2_R1_C1 5.335e-03 9.100e-03 5.335e-03 
*LOADS
*RC U196:B 9.710e-05
*RC U222:C 9.710e-05
*END

*R_NET n170 1.627e-02
*DRIVER r_Clock_Count_reg_8_:QN
*CELL fd2d1_hd
*C2_R1_C1 8.135e-03 9.460e-03 8.135e-03 
*LOADS
*RC U152:A 1.539e-04
*RC U196:A 1.539e-04
*RC U222:B 1.539e-04
*END

*R_NET n171 5.790e-03
*DRIVER U221:Y
*CELL nr2d1_hd
*C2_R1_C1 2.895e-03 7.370e-03 2.895e-03 
*LOADS
*RC U222:A 4.267e-05
*END

*R_NET n172 1.545e-02
*DRIVER U196:Y
*CELL nr2d1_hd
*C2_R1_C1 7.725e-03 9.460e-03 7.725e-03 
*LOADS
*RC U137:B 1.462e-04
*RC U161:C 1.462e-04
*RC U223:B 1.462e-04
*END

*R_NET n173 9.640e-03
*DRIVER U223:Y
*CELL oa21d1_hd
*C2_R1_C1 4.820e-03 9.100e-03 4.820e-03 
*LOADS
*RC U161:B 8.772e-05
*RC U225:B 8.772e-05
*END

*R_NET n174 9.410e-03
*DRIVER U224:Y
*CELL nr2d1_hd
*C2_R1_C1 4.705e-03 9.100e-03 4.705e-03 
*LOADS
*RC U161:D 8.563e-05
*RC U225:A 8.563e-05
*END

*R_NET n175 5.880e-03
*DRIVER U153:Y
*CELL clknd2d1_hd
*C2_R1_C1 2.940e-03 7.370e-03 2.940e-03 
*LOADS
*RC U226:D 4.334e-05
*END

*R_NET n176 1.067e-02
*DRIVER U137:Y
*CELL clknd2d1_hd
*C2_R1_C1 5.335e-03 9.100e-03 5.335e-03 
*LOADS
*RC U197:B 9.710e-05
*RC U226:C 9.710e-05
*END

*R_NET n177 1.627e-02
*DRIVER r_Clock_Count_reg_10_:QN
*CELL fd2d1_hd
*C2_R1_C1 8.135e-03 9.460e-03 8.135e-03 
*LOADS
*RC U153:A 1.539e-04
*RC U197:A 1.539e-04
*RC U226:B 1.539e-04
*END

*R_NET n178 5.790e-03
*DRIVER U225:Y
*CELL nr2d1_hd
*C2_R1_C1 2.895e-03 7.370e-03 2.895e-03 
*LOADS
*RC U226:A 4.267e-05
*END

*R_NET n179 4.717e-02
*DRIVER U139:Y
*CELL oa21d1_hd
*C2_R1_C1 2.358e-02 2.066e-02 2.358e-02 
*LOADS
*RC U133:A 9.745e-04
*RC U200:C 9.745e-04
*RC U205:A 9.745e-04
*RC U209:C 9.745e-04
*RC U214:C 9.745e-04
*RC U219:C 9.745e-04
*RC U223:C 9.745e-04
*RC U227:C 9.745e-04
*END

*R_NET n180 8.105e-02
*DRIVER U135:Y
*CELL ao21d2_hd
*C2_R1_C1 4.053e-02 2.261e-02 4.053e-02 
*LOADS
*RC U138:A 1.833e-03
*RC U228:B 1.833e-03
*RC U227:A 1.833e-03
*RC U224:B 1.833e-03
*RC U223:A 1.833e-03
*RC U220:B 1.833e-03
*RC U219:A 1.833e-03
*RC U215:B 1.833e-03
*RC U214:A 1.833e-03
*RC U212:A 1.833e-03
*RC U210:B 1.833e-03
*RC U209:A 1.833e-03
*RC U206:B 1.833e-03
*RC U202:B 1.833e-03
*RC U200:A 1.833e-03
*RC U194:B 1.833e-03
*END

*R_NET n181 1.545e-02
*DRIVER U197:Y
*CELL nr2d1_hd
*C2_R1_C1 7.725e-03 9.460e-03 7.725e-03 
*LOADS
*RC U131:B 1.462e-04
*RC U159:C 1.462e-04
*RC U227:B 1.462e-04
*END

*R_NET n182 9.640e-03
*DRIVER U227:Y
*CELL oa21d1_hd
*C2_R1_C1 4.820e-03 9.100e-03 4.820e-03 
*LOADS
*RC U159:B 8.772e-05
*RC U229:B 8.772e-05
*END

*R_NET n183 9.410e-03
*DRIVER U228:Y
*CELL nr2d1_hd
*C2_R1_C1 4.705e-03 9.100e-03 4.705e-03 
*LOADS
*RC U159:D 8.563e-05
*RC U229:A 8.563e-05
*END

*R_NET n184 3.595e-02
*DRIVER U138:Y
*CELL ivd1_hd
*C2_R1_C1 1.798e-02 1.715e-02 1.798e-02 
*LOADS
*RC U141:B 6.165e-04
*RC U149:B 6.165e-04
*RC U150:B 6.165e-04
*RC U152:B 6.165e-04
*RC U153:B 6.165e-04
*RC U203:C 6.165e-04
*RC U217:C 6.165e-04
*END

*R_NET n185 5.880e-03
*DRIVER U149:Y
*CELL clknd2d1_hd
*C2_R1_C1 2.940e-03 7.370e-03 2.940e-03 
*LOADS
*RC U230:D 4.334e-05
*END

*R_NET n186 1.067e-02
*DRIVER U131:Y
*CELL clknd2d1_hd
*C2_R1_C1 5.335e-03 9.100e-03 5.335e-03 
*LOADS
*RC U198:B 9.710e-05
*RC U230:C 9.710e-05
*END

*R_NET n187 1.627e-02
*DRIVER r_Clock_Count_reg_12_:QN
*CELL fd2d1_hd
*C2_R1_C1 8.135e-03 9.460e-03 8.135e-03 
*LOADS
*RC U149:A 1.539e-04
*RC U198:A 1.539e-04
*RC U230:B 1.539e-04
*END

*R_NET n188 5.790e-03
*DRIVER U229:Y
*CELL nr2d1_hd
*C2_R1_C1 2.895e-03 7.370e-03 2.895e-03 
*LOADS
*RC U230:A 4.267e-05
*END

*R_NET n189 1.588e-02
*DRIVER U198:Y
*CELL nr2d1_hd
*C2_R1_C1 7.940e-03 9.460e-03 7.940e-03 
*LOADS
*RC U158:D 1.502e-04
*RC U200:B 1.502e-04
*RC U203:B 1.502e-04
*END

*R_NET n190 9.420e-03
*DRIVER U194:Y
*CELL nr2d1_hd
*C2_R1_C1 4.710e-03 9.100e-03 4.710e-03 
*LOADS
*RC U158:C 8.572e-05
*RC U201:A 8.572e-05
*END

*R_NET n191 9.640e-03
*DRIVER U200:Y
*CELL oa21d1_hd
*C2_R1_C1 4.820e-03 9.100e-03 4.820e-03 
*LOADS
*RC U158:B 8.772e-05
*RC U201:B 8.772e-05
*END

*R_NET n192 5.900e-03
*DRIVER r_Clock_Count_reg_14_:QN
*CELL fd2d1_hd
*C2_R1_C1 2.950e-03 7.370e-03 2.950e-03 
*LOADS
*RC U231:D 4.348e-05
*END

*R_NET n193 1.069e-02
*DRIVER U203:Y
*CELL nd3d1_hd
*C2_R1_C1 5.345e-03 9.100e-03 5.345e-03 
*LOADS
*RC U204:B 9.728e-05
*RC U231:C 9.728e-05
*END

*R_NET n194 1.059e-02
*DRIVER U201:Y
*CELL nr2d1_hd
*C2_R1_C1 5.295e-03 9.100e-03 5.295e-03 
*LOADS
*RC U202:C 9.637e-05
*RC U231:B 9.637e-05
*END

*R_NET n195 1.077e-02
*DRIVER U142:Y
*CELL clknd2d1_hd
*C2_R1_C1 5.385e-03 9.100e-03 5.385e-03 
*LOADS
*RC U186:B 9.801e-05
*RC U232:B 9.801e-05
*END

*R_NET n196 5.570e-03
*DRIVER U155:Y
*CELL clknd2d1_hd
*C2_R1_C1 2.785e-03 7.370e-03 2.785e-03 
*LOADS
*RC U233:C 4.105e-05
*END

*R_NET n197 5.890e-03
*DRIVER U235:Y
*CELL nr2d1_hd
*C2_R1_C1 2.945e-03 7.370e-03 2.945e-03 
*LOADS
*RC U236:B 4.341e-05
*END

*R_NET n198 5.790e-03
*DRIVER r_Rx_Byte_reg_6_:QN
*CELL fd2d1_hd
*C2_R1_C1 2.895e-03 7.370e-03 2.895e-03 
*LOADS
*RC U236:A 4.267e-05
*END

*R_NET n199 1.512e-02
*DRIVER U170:Y
*CELL ivd1_hd
*C2_R1_C1 7.560e-03 9.460e-03 7.560e-03 
*LOADS
*RC U142:A 1.430e-04
*RC U144:B 1.430e-04
*RC U237:B 1.430e-04
*END

*R_NET n200 1.560e-02
*DRIVER U129:Y
*CELL clknd2d1_hd
*C2_R1_C1 7.800e-03 9.460e-03 7.800e-03 
*LOADS
*RC U232:A 1.476e-04
*RC U234:A 1.476e-04
*RC U237:A 1.476e-04
*END

*R_NET n201 5.890e-03
*DRIVER U238:Y
*CELL nr2d1_hd
*C2_R1_C1 2.945e-03 7.370e-03 2.945e-03 
*LOADS
*RC U239:B 4.341e-05
*END

*R_NET n202 5.790e-03
*DRIVER r_Rx_Byte_reg_5_:QN
*CELL fd2d1_hd
*C2_R1_C1 2.895e-03 7.370e-03 2.895e-03 
*LOADS
*RC U239:A 4.267e-05
*END

*R_NET n203 9.610e-03
*DRIVER U234:Y
*CELL nr2d1_hd
*C2_R1_C1 4.805e-03 9.100e-03 4.805e-03 
*LOADS
*RC U143:B 8.745e-05
*RC U144:A 8.745e-05
*END

*R_NET n204 1.730e-02
*DRIVER U145:Y
*CELL clknd2d1_hd
*C2_R1_C1 8.650e-03 9.460e-03 8.650e-03 
*LOADS
*RC U236:D 1.637e-04
*RC U239:D 1.637e-04
*RC U241:D 1.637e-04
*END

*R_NET n205 5.890e-03
*DRIVER U240:Y
*CELL nr2d1_hd
*C2_R1_C1 2.945e-03 7.370e-03 2.945e-03 
*LOADS
*RC U241:B 4.341e-05
*END

*R_NET n206 5.790e-03
*DRIVER r_Rx_Byte_reg_4_:QN
*CELL fd2d1_hd
*C2_R1_C1 2.895e-03 7.370e-03 2.895e-03 
*LOADS
*RC U241:A 4.267e-05
*END

*R_NET n207 3.372e-02
*DRIVER r_Bit_Index_reg_2_:QN
*CELL fd2d1_hd
*C2_R1_C1 1.686e-02 1.674e-02 1.686e-02 
*LOADS
*RC U154:B 5.645e-04
*RC U185:B 5.645e-04
*RC U187:D 5.645e-04
*RC U235:B 5.645e-04
*RC U238:B 5.645e-04
*RC U240:B 5.645e-04
*END

*R_NET n208 4.670e-03
*DRIVER U154:Y
*CELL clknd2d1_hd
*C2_R1_C1 2.335e-03 7.370e-03 2.335e-03 
*LOADS
*RC U165:D 3.442e-05
*END

*R_NET n209 1.478e-02
*DRIVER U232:Y
*CELL nr2d1_hd
*C2_R1_C1 7.390e-03 9.460e-03 7.390e-03 
*LOADS
*RC U147:B 1.398e-04
*RC U154:A 1.398e-04
*RC U165:A 1.398e-04
*END

*R_NET n210 9.220e-03
*DRIVER U175:Y
*CELL nr2d1_hd
*C2_R1_C1 4.610e-03 9.100e-03 4.610e-03 
*LOADS
*RC U165:B 8.390e-05
*RC U171:A 8.390e-05
*END

*R_NET n211 2.315e-02
*DRIVER U144:Y
*CELL clknd2d1_hd
*C2_R1_C1 1.157e-02 1.094e-02 1.157e-02 
*LOADS
*RC U235:A 2.533e-04
*RC U236:C 2.533e-04
*RC U242:A 2.533e-04
*RC U243:C 2.533e-04
*END

*R_NET n212 5.890e-03
*DRIVER U242:Y
*CELL nr2d1_hd
*C2_R1_C1 2.945e-03 7.370e-03 2.945e-03 
*LOADS
*RC U243:B 4.341e-05
*END

*R_NET n213 5.790e-03
*DRIVER r_Rx_Byte_reg_2_:QN
*CELL fd2d1_hd
*C2_R1_C1 2.895e-03 7.370e-03 2.895e-03 
*LOADS
*RC U243:A 4.267e-05
*END

*R_NET n214 2.315e-02
*DRIVER U237:Y
*CELL scg13d1_hd
*C2_R1_C1 1.157e-02 1.094e-02 1.157e-02 
*LOADS
*RC U238:A 2.533e-04
*RC U239:C 2.533e-04
*RC U244:A 2.533e-04
*RC U245:C 2.533e-04
*END

*R_NET n215 5.890e-03
*DRIVER U244:Y
*CELL nr2d1_hd
*C2_R1_C1 2.945e-03 7.370e-03 2.945e-03 
*LOADS
*RC U245:B 4.341e-05
*END

*R_NET n216 5.790e-03
*DRIVER r_Rx_Byte_reg_1_:QN
*CELL fd2d1_hd
*C2_R1_C1 2.895e-03 7.370e-03 2.895e-03 
*LOADS
*RC U245:A 4.267e-05
*END

*R_NET n217 1.730e-02
*DRIVER U171:Y
*CELL ivd1_hd
*C2_R1_C1 8.650e-03 9.460e-03 8.650e-03 
*LOADS
*RC U243:D 1.637e-04
*RC U245:D 1.637e-04
*RC U247:D 1.637e-04
*END

*R_NET n218 2.315e-02
*DRIVER U143:Y
*CELL clknd2d1_hd
*C2_R1_C1 1.157e-02 1.094e-02 1.157e-02 
*LOADS
*RC U240:A 2.533e-04
*RC U241:C 2.533e-04
*RC U246:A 2.533e-04
*RC U247:C 2.533e-04
*END

*R_NET n219 5.890e-03
*DRIVER U246:Y
*CELL nr2d1_hd
*C2_R1_C1 2.945e-03 7.370e-03 2.945e-03 
*LOADS
*RC U247:B 4.341e-05
*END

*R_NET n220 5.790e-03
*DRIVER r_Rx_Byte_reg_0_:QN
*CELL fd2d1_hd
*C2_R1_C1 2.895e-03 7.370e-03 2.895e-03 
*LOADS
*RC U247:A 4.267e-05
*END

*R_NET n221 2.741e-02
*DRIVER U172:Y
*CELL ivd1_hd
*C2_R1_C1 1.371e-02 1.549e-02 1.371e-02 
*LOADS
*RC U142:B 4.246e-04
*RC U185:D 4.246e-04
*RC U234:B 4.246e-04
*RC U237:C 4.246e-04
*RC U248:D 4.246e-04
*END

*R_NET n222 1.062e-02
*DRIVER U184:Y
*CELL nr2bd1_hd
*C2_R1_C1 5.310e-03 9.100e-03 5.310e-03 
*LOADS
*RC U185:C 9.664e-05
*RC U248:B 9.664e-05
*END

*R_NET n223 9.590e-03
*DRIVER U148:Y
*CELL clknd2d1_hd
*C2_R1_C1 4.795e-03 9.100e-03 4.795e-03 
*LOADS
*RC U168:B 8.727e-05
*RC U249:B 8.727e-05
*END

*R_NET n224 1.600e-02
*DRIVER U147:Y
*CELL clknd2d1_hd
*C2_R1_C1 8.000e-03 9.460e-03 8.000e-03 
*LOADS
*RC U155:A 1.514e-04
*RC U233:B 1.514e-04
*RC U250:A 1.514e-04
*END

*R_NET n225 1.266e-02
*DRIVER U193:Y
*CELL oa21d1_hd
*C2_R1_C1 6.330e-03 9.100e-03 6.330e-03 
*LOADS
*RC U135:C 1.152e-04
*RC U251:D 1.152e-04
*END

*R_NET n226 5.830e-03
*DRIVER U250:Y
*CELL ivd1_hd
*C2_R1_C1 2.915e-03 7.370e-03 2.915e-03 
*LOADS
*RC U251:C 4.297e-05
*END

*R_NET n227 6.180e-03
*DRIVER U249:Y
*CELL nr2d1_hd
*C2_R1_C1 3.090e-03 7.370e-03 3.090e-03 
*LOADS
*RC U251:A 4.555e-05
*END

*R_NET n228 1.080e-02
*DRIVER U191:Y
*CELL nd4d1_hd
*C2_R1_C1 5.400e-03 9.100e-03 5.400e-03 
*LOADS
*RC U192:D 9.828e-05
*RC U252:A 9.828e-05
*END

*R_NET n229 5.190e-03
*DRIVER U252:Y
*CELL oa21d1_hd
*C2_R1_C1 2.595e-03 7.370e-03 2.595e-03 
*LOADS
*RC U156:B 3.825e-05
*END

*R_NET n230 1.000e-02
*DRIVER U180:Y
*CELL nr2d1_hd
*C2_R1_C1 5.000e-03 9.100e-03 5.000e-03 
*LOADS
*RC U156:A 9.100e-05
*RC U181:B 9.100e-05
*END

*R_NET n231 4.880e-03
*DRIVER U156:Y
*CELL clknd2d1_hd
*C2_R1_C1 2.440e-03 7.370e-03 2.440e-03 
*LOADS
*RC U253:B 3.597e-05
*END

*R_NET n232 2.673e-02
*DRIVER U146:Y
*CELL clknd2d1_hd
*C2_R1_C1 1.337e-02 1.549e-02 1.337e-02 
*LOADS
*RC U129:B 4.140e-04
*RC U167:A 4.140e-04
*RC U183:B 4.140e-04