*SPEF "IEEE 1481-1999"
*DESIGN "sensor_core"
*DATE "Wed Aug 26 17:17:37 2020"
*VENDOR "SYNOPSYS INC"
*PROGRAM "Synopsys Design Compiler cmos"
*VERSION "F-2011.09-SP5-3"
*DESIGN_FLOW "SYNTHESIS"
*DIVIDER /
*DELIMITER :
*BUS_DELIMITER []
*T_UNIT 1.0 NS
*C_UNIT 1.0 PF
*R_UNIT 1.0 KOHM
*L_UNIT 1.0 HENRY

*PORTS

o_UART_DATA_TX\[55\] O *L 1.035e-02 *S 1.401e-01 9.319e-02 
o_UART_DATA_TX\[54\] O *L 1.035e-02 *S 1.314e-01 8.951e-02 
o_UART_DATA_TX\[53\] O *L 1.035e-02 *S 1.440e-01 1.837e-01 
o_UART_DATA_TX\[52\] O *L 1.035e-02 *S 9.670e-02 6.855e-02 
o_UART_DATA_TX\[51\] O *L 1.035e-02 *S 1.562e-01 1.763e-01 
o_UART_DATA_TX\[50\] O *L 1.035e-02 *S 1.562e-01 1.763e-01 
o_UART_DATA_TX\[49\] O *L 1.035e-02 *S 2.074e-01 2.427e-01 
o_UART_DATA_TX\[48\] O *L 1.035e-02 *S 2.049e-01 2.406e-01 
o_UART_DATA_TX\[47\] O *L 1.035e-02 *S 1.562e-01 1.763e-01 
o_UART_DATA_TX\[46\] O *L 1.035e-02 *S 1.562e-01 1.763e-01 
o_UART_DATA_TX\[45\] O *L 1.035e-02 *S 1.562e-01 1.763e-01 
o_UART_DATA_TX\[44\] O *L 1.035e-02 *S 1.562e-01 1.763e-01 
o_UART_DATA_TX\[43\] O *L 1.035e-02 *S 1.562e-01 1.763e-01 
o_UART_DATA_TX\[42\] O *L 1.035e-02 *S 1.562e-01 1.763e-01 
o_UART_DATA_TX\[41\] O *L 1.035e-02 *S 1.562e-01 1.763e-01 
o_UART_DATA_TX\[40\] O *L 1.035e-02 *S 1.562e-01 1.763e-01 
o_UART_DATA_TX\[39\] O *L 1.035e-02 *S 1.562e-01 1.763e-01 
o_UART_DATA_TX\[38\] O *L 1.035e-02 *S 1.562e-01 1.763e-01 
o_UART_DATA_TX\[37\] O *L 1.035e-02 *S 1.562e-01 1.763e-01 
o_UART_DATA_TX\[36\] O *L 1.035e-02 *S 1.562e-01 1.763e-01 
o_UART_DATA_TX\[35\] O *L 1.035e-02 *S 1.562e-01 1.763e-01 
o_UART_DATA_TX\[34\] O *L 1.035e-02 *S 1.562e-01 1.763e-01 
o_UART_DATA_TX\[33\] O *L 1.035e-02 *S 1.562e-01 1.763e-01 
o_UART_DATA_TX\[32\] O *L 1.035e-02 *S 1.562e-01 1.763e-01 
o_UART_DATA_TX\[31\] O *L 1.035e-02 *S 1.562e-01 1.763e-01 
o_UART_DATA_TX\[30\] O *L 1.035e-02 *S 1.562e-01 1.763e-01 
o_UART_DATA_TX\[29\] O *L 1.035e-02 *S 1.562e-01 1.763e-01 
o_UART_DATA_TX\[28\] O *L 1.035e-02 *S 1.562e-01 1.763e-01 
o_UART_DATA_TX\[27\] O *L 1.035e-02 *S 1.562e-01 1.763e-01 
o_UART_DATA_TX\[26\] O *L 1.035e-02 *S 1.562e-01 1.763e-01 
o_UART_DATA_TX\[25\] O *L 1.035e-02 *S 1.562e-01 1.763e-01 
o_UART_DATA_TX\[24\] O *L 1.035e-02 *S 1.562e-01 1.763e-01 
o_UART_DATA_TX\[23\] O *L 1.035e-02 *S 9.670e-02 6.855e-02 
o_UART_DATA_TX\[22\] O *L 1.035e-02 *S 9.670e-02 6.855e-02 
o_UART_DATA_TX\[21\] O *L 1.035e-02 *S 9.670e-02 6.855e-02 
o_UART_DATA_TX\[20\] O *L 1.035e-02 *S 9.670e-02 6.855e-02 
o_UART_DATA_TX\[19\] O *L 1.035e-02 *S 1.562e-01 1.763e-01 
o_UART_DATA_TX\[18\] O *L 1.035e-02 *S 1.562e-01 1.763e-01 
o_UART_DATA_TX\[17\] O *L 1.035e-02 *S 1.562e-01 1.763e-01 
o_UART_DATA_TX\[16\] O *L 1.035e-02 *S 1.562e-01 1.763e-01 
o_UART_DATA_TX\[15\] O *L 1.035e-02 *S 1.562e-01 1.763e-01 
o_UART_DATA_TX\[14\] O *L 1.035e-02 *S 1.562e-01 1.763e-01 
o_UART_DATA_TX\[13\] O *L 1.035e-02 *S 1.562e-01 1.763e-01 
o_UART_DATA_TX\[12\] O *L 1.035e-02 *S 1.562e-01 1.763e-01 
o_UART_DATA_TX\[11\] O *L 1.035e-02 *S 1.562e-01 1.763e-01 
o_UART_DATA_TX\[10\] O *L 1.035e-02 *S 1.562e-01 1.763e-01 
o_UART_DATA_TX\[9\] O *L 1.035e-02 *S 1.562e-01 1.763e-01 
o_UART_DATA_TX\[8\] O *L 1.035e-02 *S 1.562e-01 1.763e-01 
o_UART_DATA_TX\[7\] O *L 1.035e-02 *S 1.401e-01 9.319e-02 
o_UART_DATA_TX\[6\] O *L 1.035e-02 *S 9.670e-02 6.855e-02 
o_UART_DATA_TX\[5\] O *L 1.035e-02 *S 1.401e-01 9.319e-02 
o_UART_DATA_TX\[4\] O *L 1.035e-02 *S 1.401e-01 9.319e-02 
o_UART_DATA_TX\[3\] O *L 1.035e-02 *S 1.401e-01 9.319e-02 
o_UART_DATA_TX\[2\] O *L 1.035e-02 *S 9.670e-02 6.855e-02 
o_UART_DATA_TX\[1\] O *L 1.035e-02 *S 1.401e-01 9.319e-02 
o_UART_DATA_TX\[0\] O *L 1.035e-02 *S 1.401e-01 9.319e-02 
o_UART_DATA_TX_VALID O *L 1.035e-02 *S 3.700e-01 3.504e-01 
i_UART_DATA_TX_READY I *L 1.900e-03 *S 2.083e-01 2.434e-01 *D fd2qd1_hd 
i_UART_DATA_RX\[15\] I *L 1.900e-03 *S 1.340e-01 1.735e-01 *D fd2qd1_hd 
i_UART_DATA_RX\[14\] I *L 1.900e-03 *S 1.340e-01 1.735e-01 *D fd2qd1_hd 
i_UART_DATA_RX\[13\] I *L 1.900e-03 *S 1.340e-01 1.735e-01 *D fd2qd1_hd 
i_UART_DATA_RX\[12\] I *L 1.900e-03 *S 1.340e-01 1.735e-01 *D fd2qd1_hd 
i_UART_DATA_RX\[11\] I *L 1.900e-03 *S 1.340e-01 1.735e-01 *D fd2qd1_hd 
i_UART_DATA_RX\[10\] I *L 1.900e-03 *S 1.340e-01 1.735e-01 *D fd2qd1_hd 
i_UART_DATA_RX\[9\] I *L 1.900e-03 *S 1.340e-01 1.735e-01 *D fd2qd1_hd 
i_UART_DATA_RX\[8\] I *L 1.900e-03 *S 1.340e-01 1.735e-01 *D fd2qd1_hd 
i_UART_DATA_RX\[7\] I *L 1.900e-03 *S 1.340e-01 1.735e-01 *D fd2qd1_hd 
i_UART_DATA_RX\[6\] I *L 1.900e-03 *S 1.340e-01 1.735e-01 *D fd2qd1_hd 
i_UART_DATA_RX\[5\] I *L 1.900e-03 *S 1.340e-01 1.735e-01 *D fd2qd1_hd 
i_UART_DATA_RX\[4\] I *L 1.900e-03 *S 1.340e-01 1.735e-01 *D fd2qd1_hd 
i_UART_DATA_RX\[3\] I *L 1.900e-03 *S 1.340e-01 1.735e-01 *D fd2qd1_hd 
i_UART_DATA_RX\[2\] I *L 1.900e-03 *S 1.340e-01 1.735e-01 *D fd2qd1_hd 
i_UART_DATA_RX\[1\] I *L 1.900e-03 *S 1.340e-01 1.735e-01 *D fd2qd1_hd 
i_UART_DATA_RX\[0\] I *L 1.900e-03 *S 1.340e-01 1.735e-01 *D fd2qd1_hd 
i_UART_DATA_RX_VALID I *L 1.900e-03 *S 2.061e-01 2.416e-01 *D fd2qd1_hd 
i_MPR121_DATA_OUT\[7\] I *L 1.530e-03 *S 1.349e-01 1.744e-01 *D fd2qd1_hd 
i_MPR121_DATA_OUT\[6\] I *L 1.530e-03 *S 1.349e-01 1.744e-01 *D fd2qd1_hd 
i_MPR121_DATA_OUT\[5\] I *L 1.530e-03 *S 1.349e-01 1.744e-01 *D fd2qd1_hd 
i_MPR121_DATA_OUT\[4\] I *L 1.530e-03 *S 1.349e-01 1.744e-01 *D fd2qd1_hd 
i_MPR121_DATA_OUT\[3\] I *L 1.530e-03 *S 1.349e-01 1.744e-01 *D fd2qd1_hd 
i_MPR121_DATA_OUT\[2\] I *L 1.530e-03 *S 1.349e-01 1.744e-01 *D fd2qd1_hd 
i_MPR121_DATA_OUT\[1\] I *L 1.530e-03 *S 1.349e-01 1.744e-01 *D fd2qd1_hd 
i_MPR121_DATA_OUT\[0\] I *L 1.530e-03 *S 1.349e-01 1.744e-01 *D fd2qd1_hd 
o_MPR121_REG_ADDR\[7\] O *L 1.035e-02 *S 2.188e-01 2.321e-01 
o_MPR121_REG_ADDR\[6\] O *L 1.035e-02 *S 2.188e-01 2.321e-01 
o_MPR121_REG_ADDR\[5\] O *L 1.035e-02 *S 2.188e-01 2.321e-01 
o_MPR121_REG_ADDR\[4\] O *L 1.035e-02 *S 2.188e-01 2.321e-01 
o_MPR121_REG_ADDR\[3\] O *L 1.035e-02 *S 2.188e-01 2.321e-01 
o_MPR121_REG_ADDR\[2\] O *L 1.035e-02 *S 2.188e-01 2.321e-01 
o_MPR121_REG_ADDR\[1\] O *L 1.035e-02 *S 2.188e-01 2.321e-01 
o_MPR121_REG_ADDR\[0\] O *L 1.035e-02 *S 2.188e-01 2.321e-01 
o_MPR121_DATA_IN\[7\] O *L 1.035e-02 *S 2.188e-01 2.321e-01 
o_MPR121_DATA_IN\[6\] O *L 1.035e-02 *S 2.188e-01 2.321e-01 
o_MPR121_DATA_IN\[5\] O *L 1.035e-02 *S 9.670e-02 6.855e-02 
o_MPR121_DATA_IN\[4\] O *L 1.035e-02 *S 2.188e-01 2.321e-01 
o_MPR121_DATA_IN\[3\] O *L 1.035e-02 *S 2.188e-01 2.321e-01 
o_MPR121_DATA_IN\[2\] O *L 1.035e-02 *S 2.188e-01 2.321e-01 
o_MPR121_DATA_IN\[1\] O *L 1.035e-02 *S 2.188e-01 2.321e-01 
o_MPR121_DATA_IN\[0\] O *L 1.035e-02 *S 2.188e-01 2.321e-01 
o_MPR121_WRITE_ENABLE O *L 1.035e-02 *S 3.700e-01 3.504e-01 
o_MPR121_READ_ENABLE O *L 1.035e-02 *S 3.700e-01 3.504e-01 
i_MPR121_INIT_SET I *L 1.530e-03 *S 1.348e-01 1.743e-01 *D fd2qd1_hd 
i_MPR121_BUSY I *L 2.460e-03 *S 4.095e-01 3.986e-01 *D fd2qd1_hd 
i_MPR121_FAIL I *L 0.000e+00 *S 1.428e-01 1.072e-01 *D fd3d1_hd 
o_MPR121_ERROR O *L 1.035e-02 *S 1.541e-01 1.742e-01 
i_ADS1292_FILTERED_DATA_OUT\[23\] I *L 1.900e-03 *S 1.455e-01 1.655e-01 *D fd4qd1_hd 
i_ADS1292_FILTERED_DATA_OUT\[22\] I *L 1.900e-03 *S 1.455e-01 1.655e-01 *D fd4qd1_hd 
i_ADS1292_FILTERED_DATA_OUT\[21\] I *L 1.900e-03 *S 1.455e-01 1.655e-01 *D fd4qd1_hd 
i_ADS1292_FILTERED_DATA_OUT\[20\] I *L 1.900e-03 *S 1.455e-01 1.655e-01 *D fd4qd1_hd 
i_ADS1292_FILTERED_DATA_OUT\[19\] I *L 1.900e-03 *S 1.455e-01 1.655e-01 *D fd4qd1_hd 
i_ADS1292_FILTERED_DATA_OUT\[18\] I *L 1.900e-03 *S 1.455e-01 1.655e-01 *D fd4qd1_hd 
i_ADS1292_FILTERED_DATA_OUT\[17\] I *L 1.900e-03 *S 1.455e-01 1.655e-01 *D fd4qd1_hd 
i_ADS1292_FILTERED_DATA_OUT\[16\] I *L 1.900e-03 *S 1.455e-01 1.655e-01 *D fd4qd1_hd 
i_ADS1292_FILTERED_DATA_OUT\[15\] I *L 1.900e-03 *S 1.455e-01 1.655e-01 *D fd4qd1_hd 
i_ADS1292_FILTERED_DATA_OUT\[14\] I *L 1.900e-03 *S 1.455e-01 1.655e-01 *D fd4qd1_hd 
i_ADS1292_FILTERED_DATA_OUT\[13\] I *L 1.900e-03 *S 1.455e-01 1.655e-01 *D fd4qd1_hd 
i_ADS1292_FILTERED_DATA_OUT\[12\] I *L 1.900e-03 *S 1.455e-01 1.655e-01 *D fd4qd1_hd 
i_ADS1292_FILTERED_DATA_OUT\[11\] I *L 1.900e-03 *S 1.455e-01 1.655e-01 *D fd4qd1_hd 
i_ADS1292_FILTERED_DATA_OUT\[10\] I *L 1.900e-03 *S 1.455e-01 1.655e-01 *D fd4qd1_hd 
i_ADS1292_FILTERED_DATA_OUT\[9\] I *L 1.900e-03 *S 1.455e-01 1.655e-01 *D fd4qd1_hd 
i_ADS1292_FILTERED_DATA_OUT\[8\] I *L 1.900e-03 *S 1.455e-01 1.655e-01 *D fd4qd1_hd 
i_ADS1292_FILTERED_DATA_OUT\[7\] I *L 1.900e-03 *S 1.455e-01 1.655e-01 *D fd4qd1_hd 
i_ADS1292_FILTERED_DATA_OUT\[6\] I *L 1.900e-03 *S 1.455e-01 1.655e-01 *D fd4qd1_hd 
i_ADS1292_FILTERED_DATA_OUT\[5\] I *L 1.900e-03 *S 1.455e-01 1.655e-01 *D fd4qd1_hd 
i_ADS1292_FILTERED_DATA_OUT\[4\] I *L 1.900e-03 *S 1.455e-01 1.655e-01 *D fd4qd1_hd 
i_ADS1292_FILTERED_DATA_OUT\[3\] I *L 1.900e-03 *S 1.455e-01 1.655e-01 *D fd4qd1_hd 
i_ADS1292_FILTERED_DATA_OUT\[2\] I *L 1.900e-03 *S 1.455e-01 1.655e-01 *D fd4qd1_hd 
i_ADS1292_FILTERED_DATA_OUT\[1\] I *L 1.900e-03 *S 1.455e-01 1.655e-01 *D fd4qd1_hd 
i_ADS1292_FILTERED_DATA_OUT\[0\] I *L 1.900e-03 *S 1.455e-01 1.655e-01 *D fd4qd1_hd 
o_ADS1292_CONTROL\[2\] O *L 1.035e-02 *S 5.337e-01 4.581e-01 
o_ADS1292_CONTROL\[1\] O *L 1.035e-02 *S 5.337e-01 4.581e-01 
o_ADS1292_CONTROL\[0\] O *L 1.035e-02 *S 3.700e-01 3.504e-01 
o_ADS1292_REG_ADDR\[7\] O *L 1.035e-02 *S 2.188e-01 2.321e-01 
o_ADS1292_REG_ADDR\[6\] O *L 1.035e-02 *S 2.188e-01 2.321e-01 
o_ADS1292_REG_ADDR\[5\] O *L 1.035e-02 *S 2.188e-01 2.321e-01 
o_ADS1292_REG_ADDR\[4\] O *L 1.035e-02 *S 2.687e-01 2.716e-01 
o_ADS1292_REG_ADDR\[3\] O *L 1.035e-02 *S 2.188e-01 2.321e-01 
o_ADS1292_REG_ADDR\[2\] O *L 1.035e-02 *S 2.188e-01 2.321e-01 
o_ADS1292_REG_ADDR\[1\] O *L 1.035e-02 *S 2.687e-01 2.716e-01 
o_ADS1292_REG_ADDR\[0\] O *L 1.035e-02 *S 2.188e-01 2.321e-01 
o_ADS1292_DATA_IN\[7\] O *L 1.035e-02 *S 2.188e-01 2.321e-01 
o_ADS1292_DATA_IN\[6\] O *L 1.035e-02 *S 2.188e-01 2.321e-01 
o_ADS1292_DATA_IN\[5\] O *L 1.035e-02 *S 2.188e-01 2.321e-01 
o_ADS1292_DATA_IN\[4\] O *L 1.035e-02 *S 2.188e-01 2.321e-01 
o_ADS1292_DATA_IN\[3\] O *L 1.035e-02 *S 2.188e-01 2.321e-01 
o_ADS1292_DATA_IN\[2\] O *L 1.035e-02 *S 2.188e-01 2.321e-01 
o_ADS1292_DATA_IN\[1\] O *L 1.035e-02 *S 2.188e-01 2.321e-01 
o_ADS1292_DATA_IN\[0\] O *L 1.035e-02 *S 2.188e-01 2.321e-01 
i_ADS1292_REG_DATA_OUT\[7\] I *L 0.000e+00 *S 6.906e-02 6.311e-02 *D fds2eqd1_hd 
i_ADS1292_REG_DATA_OUT\[6\] I *L 0.000e+00 *S 6.906e-02 6.311e-02 *D fds2eqd1_hd 
i_ADS1292_REG_DATA_OUT\[5\] I *L 0.000e+00 *S 6.906e-02 6.311e-02 *D fds2eqd1_hd 
i_ADS1292_REG_DATA_OUT\[4\] I *L 0.000e+00 *S 6.906e-02 6.311e-02 *D fds2eqd1_hd 
i_ADS1292_REG_DATA_OUT\[3\] I *L 0.000e+00 *S 6.906e-02 6.311e-02 *D fds2eqd1_hd 
i_ADS1292_REG_DATA_OUT\[2\] I *L 0.000e+00 *S 6.906e-02 6.311e-02 *D fds2eqd1_hd 
i_ADS1292_REG_DATA_OUT\[1\] I *L 0.000e+00 *S 6.906e-02 6.311e-02 *D fds2eqd1_hd 
i_ADS1292_REG_DATA_OUT\[0\] I *L 0.000e+00 *S 6.906e-02 6.311e-02 *D fds2eqd1_hd 
i_ADS1292_INIT_SET I *L 1.530e-03 *S 1.347e-01 1.741e-01 *D fd2qd1_hd 
i_ADS1292_FILTERED_DATA_VALID I *L 3.950e-03 *S 2.952e-01 2.923e-01 *D fd4qd1_hd 
o_ADS1292_FILTERED_DATA_ACK O *L 1.035e-02 *S 2.188e-01 2.321e-01 
i_ADS1292_BUSY I *L 2.040e-03 *S 3.328e-01 3.449e-01 *D fd2qd1_hd 
i_CLK I *L 0.000e+00 *S 0.000e+00 0.000e+00 *D fj4d1_hd 
i_RSTN I *L 1.760e-02 *S 0.000e+00 0.000e+00 *D nid1_hd 

*R_NET i_UART_DATA_RX\[15\] 1.459e-02
*DRIVER i_UART_DATA_RX\[15\]
*CELL fd2qd1_hd
*C2_R1_C1 7.295e-03 1.275e-02 7.295e-03 
*LOADS
*RC U382:B 1.860e-04
*END

*R_NET i_UART_DATA_RX\[14\] 1.459e-02
*DRIVER i_UART_DATA_RX\[14\]
*CELL fd2qd1_hd
*C2_R1_C1 7.295e-03 1.275e-02 7.295e-03 
*LOADS
*RC U383:B 1.860e-04
*END

*R_NET i_UART_DATA_RX\[13\] 1.459e-02
*DRIVER i_UART_DATA_RX\[13\]
*CELL fd2qd1_hd
*C2_R1_C1 7.295e-03 1.275e-02 7.295e-03 
*LOADS
*RC U384:B 1.860e-04
*END

*R_NET i_UART_DATA_RX\[12\] 1.459e-02
*DRIVER i_UART_DATA_RX\[12\]
*CELL fd2qd1_hd
*C2_R1_C1 7.295e-03 1.275e-02 7.295e-03 
*LOADS
*RC U385:B 1.860e-04
*END

*R_NET i_UART_DATA_RX\[11\] 1.459e-02
*DRIVER i_UART_DATA_RX\[11\]
*CELL fd2qd1_hd
*C2_R1_C1 7.295e-03 1.275e-02 7.295e-03 
*LOADS
*RC U386:B 1.860e-04
*END

*R_NET i_UART_DATA_RX\[10\] 1.459e-02
*DRIVER i_UART_DATA_RX\[10\]
*CELL fd2qd1_hd
*C2_R1_C1 7.295e-03 1.275e-02 7.295e-03 
*LOADS
*RC U387:B 1.860e-04
*END

*R_NET i_UART_DATA_RX\[9\] 1.459e-02
*DRIVER i_UART_DATA_RX\[9\]
*CELL fd2qd1_hd
*C2_R1_C1 7.295e-03 1.275e-02 7.295e-03 
*LOADS
*RC U388:B 1.860e-04
*END

*R_NET i_UART_DATA_RX\[8\] 1.459e-02
*DRIVER i_UART_DATA_RX\[8\]
*CELL fd2qd1_hd
*C2_R1_C1 7.295e-03 1.275e-02 7.295e-03 
*LOADS
*RC U389:B 1.860e-04
*END

*R_NET i_UART_DATA_RX\[7\] 1.459e-02
*DRIVER i_UART_DATA_RX\[7\]
*CELL fd2qd1_hd
*C2_R1_C1 7.295e-03 1.275e-02 7.295e-03 
*LOADS
*RC U390:B 1.860e-04
*END

*R_NET i_UART_DATA_RX\[6\] 1.459e-02
*DRIVER i_UART_DATA_RX\[6\]
*CELL fd2qd1_hd
*C2_R1_C1 7.295e-03 1.275e-02 7.295e-03 
*LOADS
*RC U391:B 1.860e-04
*END

*R_NET i_UART_DATA_RX\[5\] 1.459e-02
*DRIVER i_UART_DATA_RX\[5\]
*CELL fd2qd1_hd
*C2_R1_C1 7.295e-03 1.275e-02 7.295e-03 
*LOADS
*RC U392:B 1.860e-04
*END

*R_NET i_UART_DATA_RX\[4\] 1.459e-02
*DRIVER i_UART_DATA_RX\[4\]
*CELL fd2qd1_hd
*C2_R1_C1 7.295e-03 1.275e-02 7.295e-03 
*LOADS
*RC U393:B 1.860e-04
*END

*R_NET i_UART_DATA_RX\[3\] 1.459e-02
*DRIVER i_UART_DATA_RX\[3\]
*CELL fd2qd1_hd
*C2_R1_C1 7.295e-03 1.275e-02 7.295e-03 
*LOADS
*RC U394:B 1.860e-04
*END

*R_NET i_UART_DATA_RX\[2\] 1.459e-02
*DRIVER i_UART_DATA_RX\[2\]
*CELL fd2qd1_hd
*C2_R1_C1 7.295e-03 1.275e-02 7.295e-03 
*LOADS
*RC U395:B 1.860e-04
*END

*R_NET i_UART_DATA_RX\[1\] 1.459e-02
*DRIVER i_UART_DATA_RX\[1\]
*CELL fd2qd1_hd
*C2_R1_C1 7.295e-03 1.275e-02 7.295e-03 
*LOADS
*RC U396:B 1.860e-04
*END

*R_NET i_UART_DATA_RX\[0\] 1.459e-02
*DRIVER i_UART_DATA_RX\[0\]
*CELL fd2qd1_hd
*C2_R1_C1 7.295e-03 1.275e-02 7.295e-03 
*LOADS
*RC U397:B 1.860e-04
*END

*R_NET i_MPR121_DATA_OUT\[7\] 1.470e-02
*DRIVER i_MPR121_DATA_OUT\[7\]
*CELL fd2qd1_hd
*C2_R1_C1 7.350e-03 1.275e-02 7.350e-03 
*LOADS
*RC U273:A 1.874e-04
*END

*R_NET i_MPR121_DATA_OUT\[6\] 1.470e-02
*DRIVER i_MPR121_DATA_OUT\[6\]
*CELL fd2qd1_hd
*C2_R1_C1 7.350e-03 1.275e-02 7.350e-03 
*LOADS
*RC U275:A 1.874e-04
*END

*R_NET i_MPR121_DATA_OUT\[5\] 1.470e-02
*DRIVER i_MPR121_DATA_OUT\[5\]
*CELL fd2qd1_hd
*C2_R1_C1 7.350e-03 1.275e-02 7.350e-03 
*LOADS
*RC U277:A 1.874e-04
*END

*R_NET i_MPR121_DATA_OUT\[4\] 1.470e-02
*DRIVER i_MPR121_DATA_OUT\[4\]
*CELL fd2qd1_hd
*C2_R1_C1 7.350e-03 1.275e-02 7.350e-03 
*LOADS
*RC U279:A 1.874e-04
*END

*R_NET i_MPR121_DATA_OUT\[3\] 1.470e-02
*DRIVER i_MPR121_DATA_OUT\[3\]
*CELL fd2qd1_hd
*C2_R1_C1 7.350e-03 1.275e-02 7.350e-03 
*LOADS
*RC U281:A 1.874e-04
*END

*R_NET i_MPR121_DATA_OUT\[2\] 1.470e-02
*DRIVER i_MPR121_DATA_OUT\[2\]
*CELL fd2qd1_hd
*C2_R1_C1 7.350e-03 1.275e-02 7.350e-03 
*LOADS
*RC U283:A 1.874e-04
*END

*R_NET i_MPR121_DATA_OUT\[1\] 1.470e-02
*DRIVER i_MPR121_DATA_OUT\[1\]
*CELL fd2qd1_hd
*C2_R1_C1 7.350e-03 1.275e-02 7.350e-03 
*LOADS
*RC U285:A 1.874e-04
*END

*R_NET i_MPR121_DATA_OUT\[0\] 1.470e-02
*DRIVER i_MPR121_DATA_OUT\[0\]
*CELL fd2qd1_hd
*C2_R1_C1 7.350e-03 1.275e-02 7.350e-03 
*LOADS
*RC U287:A 1.874e-04
*END

*R_NET n582 4.750e-03
*DRIVER U1173:Y
*CELL mx2d1_hd
*C2_R1_C1 2.375e-03 7.370e-03 2.375e-03 
*LOADS
*RC clk_r_REG132_S4:D 3.501e-05
*END

*R_NET n583 4.750e-03
*DRIVER U1172:Y
*CELL mx2d1_hd
*C2_R1_C1 2.375e-03 7.370e-03 2.375e-03 
*LOADS
*RC clk_r_REG129_S4:D 3.501e-05
*END

*R_NET n584 4.750e-03
*DRIVER U1171:Y
*CELL mx2d1_hd
*C2_R1_C1 2.375e-03 7.370e-03 2.375e-03 
*LOADS
*RC clk_r_REG111_S4:D 3.501e-05
*END

*R_NET n585 4.750e-03
*DRIVER U1170:Y
*CELL mx2d1_hd
*C2_R1_C1 2.375e-03 7.370e-03 2.375e-03 
*LOADS
*RC clk_r_REG114_S4:D 3.501e-05
*END

*R_NET n586 4.750e-03
*DRIVER U1169:Y
*CELL mx2d1_hd
*C2_R1_C1 2.375e-03 7.370e-03 2.375e-03 
*LOADS
*RC clk_r_REG117_S4:D 3.501e-05
*END

*R_NET n587 4.750e-03
*DRIVER U1168:Y
*CELL mx2d1_hd
*C2_R1_C1 2.375e-03 7.370e-03 2.375e-03 
*LOADS
*RC clk_r_REG120_S4:D 3.501e-05
*END

*R_NET n588 4.750e-03
*DRIVER U1167:Y
*CELL mx2d1_hd
*C2_R1_C1 2.375e-03 7.370e-03 2.375e-03 
*LOADS
*RC clk_r_REG123_S4:D 3.501e-05
*END

*R_NET n589 4.750e-03
*DRIVER U1166:Y
*CELL mx2d1_hd
*C2_R1_C1 2.375e-03 7.370e-03 2.375e-03 
*LOADS
*RC clk_r_REG126_S4:D 3.501e-05
*END

*R_NET n590 4.750e-03
*DRIVER U1198:Y
*CELL mx2d1_hd
*C2_R1_C1 2.375e-03 7.370e-03 2.375e-03 
*LOADS
*RC clk_r_REG182_S6:D 3.501e-05
*END

*R_NET n591 4.750e-03
*DRIVER U1197:Y
*CELL mx2d1_hd
*C2_R1_C1 2.375e-03 7.370e-03 2.375e-03 
*LOADS
*RC clk_r_REG180_S6:D 3.501e-05
*END

*R_NET n592 4.750e-03
*DRIVER U1196:Y
*CELL mx2d1_hd
*C2_R1_C1 2.375e-03 7.370e-03 2.375e-03 
*LOADS
*RC clk_r_REG178_S6:D 3.501e-05
*END

*R_NET n593 4.750e-03
*DRIVER U1195:Y
*CELL mx2d1_hd
*C2_R1_C1 2.375e-03 7.370e-03 2.375e-03 
*LOADS
*RC clk_r_REG176_S6:D 3.501e-05
*END

*R_NET n594 4.750e-03
*DRIVER U1194:Y
*CELL mx2d1_hd
*C2_R1_C1 2.375e-03 7.370e-03 2.375e-03 
*LOADS
*RC clk_r_REG174_S6:D 3.501e-05
*END

*R_NET n595 4.750e-03
*DRIVER U1193:Y
*CELL mx2d1_hd
*C2_R1_C1 2.375e-03 7.370e-03 2.375e-03 
*LOADS
*RC clk_r_REG172_S6:D 3.501e-05
*END

*R_NET n596 4.750e-03
*DRIVER U1192:Y
*CELL mx2d1_hd
*C2_R1_C1 2.375e-03 7.370e-03 2.375e-03 
*LOADS
*RC clk_r_REG170_S6:D 3.501e-05
*END

*R_NET i_ADS1292_FILTERED_DATA_OUT\[23\] 1.444e-02
*DRIVER i_ADS1292_FILTERED_DATA_OUT\[23\]
*CELL fd4qd1_hd
*C2_R1_C1 7.220e-03 1.275e-02 7.220e-03 
*LOADS
*RC U110:A 1.841e-04
*END

*R_NET i_ADS1292_FILTERED_DATA_OUT\[22\] 1.444e-02
*DRIVER i_ADS1292_FILTERED_DATA_OUT\[22\]
*CELL fd4qd1_hd
*C2_R1_C1 7.220e-03 1.275e-02 7.220e-03 
*LOADS
*RC U111:A 1.841e-04
*END

*R_NET i_ADS1292_FILTERED_DATA_OUT\[21\] 1.444e-02
*DRIVER i_ADS1292_FILTERED_DATA_OUT\[21\]
*CELL fd4qd1_hd
*C2_R1_C1 7.220e-03 1.275e-02 7.220e-03 
*LOADS
*RC U112:A 1.841e-04
*END

*R_NET i_ADS1292_FILTERED_DATA_OUT\[20\] 1.444e-02
*DRIVER i_ADS1292_FILTERED_DATA_OUT\[20\]
*CELL fd4qd1_hd
*C2_R1_C1 7.220e-03 1.275e-02 7.220e-03 
*LOADS
*RC U113:A 1.841e-04
*END

*R_NET i_ADS1292_FILTERED_DATA_OUT\[19\] 1.444e-02
*DRIVER i_ADS1292_FILTERED_DATA_OUT\[19\]
*CELL fd4qd1_hd
*C2_R1_C1 7.220e-03 1.275e-02 7.220e-03 
*LOADS
*RC U114:A 1.841e-04
*END

*R_NET i_ADS1292_FILTERED_DATA_OUT\[18\] 1.444e-02
*DRIVER i_ADS1292_FILTERED_DATA_OUT\[18\]
*CELL fd4qd1_hd
*C2_R1_C1 7.220e-03 1.275e-02 7.220e-03 
*LOADS
*RC U115:A 1.841e-04
*END

*R_NET i_ADS1292_FILTERED_DATA_OUT\[17\] 1.444e-02
*DRIVER i_ADS1292_FILTERED_DATA_OUT\[17\]
*CELL fd4qd1_hd
*C2_R1_C1 7.220e-03 1.275e-02 7.220e-03 
*LOADS
*RC U116:A 1.841e-04
*END

*R_NET i_ADS1292_FILTERED_DATA_OUT\[16\] 1.444e-02
*DRIVER i_ADS1292_FILTERED_DATA_OUT\[16\]
*CELL fd4qd1_hd
*C2_R1_C1 7.220e-03 1.275e-02 7.220e-03 
*LOADS
*RC U117:A 1.841e-04
*END

*R_NET i_ADS1292_FILTERED_DATA_OUT\[15\] 1.444e-02
*DRIVER i_ADS1292_FILTERED_DATA_OUT\[15\]
*CELL fd4qd1_hd
*C2_R1_C1 7.220e-03 1.275e-02 7.220e-03 
*LOADS
*RC U118:A 1.841e-04
*END

*R_NET i_ADS1292_FILTERED_DATA_OUT\[14\] 1.444e-02
*DRIVER i_ADS1292_FILTERED_DATA_OUT\[14\]
*CELL fd4qd1_hd
*C2_R1_C1 7.220e-03 1.275e-02 7.220e-03 
*LOADS
*RC U119:A 1.841e-04
*END

*R_NET i_ADS1292_FILTERED_DATA_OUT\[13\] 1.444e-02
*DRIVER i_ADS1292_FILTERED_DATA_OUT\[13\]
*CELL fd4qd1_hd
*C2_R1_C1 7.220e-03 1.275e-02 7.220e-03 
*LOADS
*RC U120:A 1.841e-04
*END

*R_NET i_ADS1292_FILTERED_DATA_OUT\[12\] 1.444e-02
*DRIVER i_ADS1292_FILTERED_DATA_OUT\[12\]
*CELL fd4qd1_hd
*C2_R1_C1 7.220e-03 1.275e-02 7.220e-03 
*LOADS
*RC U121:A 1.841e-04
*END

*R_NET i_ADS1292_FILTERED_DATA_OUT\[11\] 1.444e-02
*DRIVER i_ADS1292_FILTERED_DATA_OUT\[11\]
*CELL fd4qd1_hd
*C2_R1_C1 7.220e-03 1.275e-02 7.220e-03 
*LOADS
*RC U122:A 1.841e-04
*END

*R_NET i_ADS1292_FILTERED_DATA_OUT\[10\] 1.444e-02
*DRIVER i_ADS1292_FILTERED_DATA_OUT\[10\]
*CELL fd4qd1_hd
*C2_R1_C1 7.220e-03 1.275e-02 7.220e-03 
*LOADS
*RC U123:A 1.841e-04
*END

*R_NET i_ADS1292_FILTERED_DATA_OUT\[9\] 1.444e-02
*DRIVER i_ADS1292_FILTERED_DATA_OUT\[9\]
*CELL fd4qd1_hd
*C2_R1_C1 7.220e-03 1.275e-02 7.220e-03 
*LOADS
*RC U124:A 1.841e-04
*END

*R_NET i_ADS1292_FILTERED_DATA_OUT\[8\] 1.444e-02
*DRIVER i_ADS1292_FILTERED_DATA_OUT\[8\]
*CELL fd4qd1_hd
*C2_R1_C1 7.220e-03 1.275e-02 7.220e-03 
*LOADS
*RC U125:A 1.841e-04
*END

*R_NET i_ADS1292_FILTERED_DATA_OUT\[7\] 1.444e-02
*DRIVER i_ADS1292_FILTERED_DATA_OUT\[7\]
*CELL fd4qd1_hd
*C2_R1_C1 7.220e-03 1.275e-02 7.220e-03 
*LOADS
*RC U126:A 1.841e-04
*END

*R_NET i_ADS1292_FILTERED_DATA_OUT\[6\] 1.444e-02
*DRIVER i_ADS1292_FILTERED_DATA_OUT\[6\]
*CELL fd4qd1_hd
*C2_R1_C1 7.220e-03 1.275e-02 7.220e-03 
*LOADS
*RC U127:A 1.841e-04
*END

*R_NET i_ADS1292_FILTERED_DATA_OUT\[5\] 1.444e-02
*DRIVER i_ADS1292_FILTERED_DATA_OUT\[5\]
*CELL fd4qd1_hd
*C2_R1_C1 7.220e-03 1.275e-02 7.220e-03 
*LOADS
*RC U128:A 1.841e-04
*END

*R_NET i_ADS1292_FILTERED_DATA_OUT\[4\] 1.444e-02
*DRIVER i_ADS1292_FILTERED_DATA_OUT\[4\]
*CELL fd4qd1_hd
*C2_R1_C1 7.220e-03 1.275e-02 7.220e-03 
*LOADS
*RC U129:A 1.841e-04
*END

*R_NET i_ADS1292_FILTERED_DATA_OUT\[3\] 1.444e-02
*DRIVER i_ADS1292_FILTERED_DATA_OUT\[3\]
*CELL fd4qd1_hd
*C2_R1_C1 7.220e-03 1.275e-02 7.220e-03 
*LOADS
*RC U130:A 1.841e-04
*END

*R_NET i_ADS1292_FILTERED_DATA_OUT\[2\] 1.444e-02
*DRIVER i_ADS1292_FILTERED_DATA_OUT\[2\]
*CELL fd4qd1_hd
*C2_R1_C1 7.220e-03 1.275e-02 7.220e-03 
*LOADS
*RC U131:A 1.841e-04
*END

*R_NET i_ADS1292_FILTERED_DATA_OUT\[1\] 1.444e-02
*DRIVER i_ADS1292_FILTERED_DATA_OUT\[1\]
*CELL fd4qd1_hd
*C2_R1_C1 7.220e-03 1.275e-02 7.220e-03 
*LOADS
*RC U132:A 1.841e-04
*END

*R_NET i_ADS1292_FILTERED_DATA_OUT\[0\] 1.444e-02
*DRIVER i_ADS1292_FILTERED_DATA_OUT\[0\]
*CELL fd4qd1_hd
*C2_R1_C1 7.220e-03 1.275e-02 7.220e-03 
*LOADS
*RC U133:A 1.841e-04
*END

*R_NET n600 4.750e-03
*DRIVER U1141:Y
*CELL mx2d1_hd
*C2_R1_C1 2.375e-03 7.370e-03 2.375e-03 
*LOADS
*RC clk_r_REG79_S5:D 3.501e-05
*END

*R_NET n601 4.750e-03
*DRIVER U1140:Y
*CELL mx2d1_hd
*C2_R1_C1 2.375e-03 7.370e-03 2.375e-03 
*LOADS
*RC clk_r_REG78_S5:D 3.501e-05
*END

*R_NET n602 4.750e-03
*DRIVER U1138:Y
*CELL mx2d1_hd
*C2_R1_C1 2.375e-03 7.370e-03 2.375e-03 
*LOADS
*RC clk_r_REG80_S5:D 3.501e-05
*END

*R_NET n603 4.750e-03
*DRIVER U1155:Y
*CELL mx2d1_hd
*C2_R1_C1 2.375e-03 7.370e-03 2.375e-03 
*LOADS
*RC clk_r_REG75_S4:D 3.501e-05
*END

*R_NET n604 4.750e-03
*DRIVER U1154:Y
*CELL mx2d1_hd
*C2_R1_C1 2.375e-03 7.370e-03 2.375e-03 
*LOADS
*RC clk_r_REG72_S4:D 3.501e-05
*END

*R_NET n605 4.750e-03
*DRIVER U1153:Y
*CELL mx2d1_hd
*C2_R1_C1 2.375e-03 7.370e-03 2.375e-03 
*LOADS
*RC clk_r_REG56_S4:D 3.501e-05
*END

*R_NET n606 4.750e-03
*DRIVER U1152:Y
*CELL mx2d1_hd
*C2_R1_C1 2.375e-03 7.370e-03 2.375e-03 
*LOADS
*RC clk_r_REG59_S4:D 3.501e-05
*END

*R_NET n607 4.750e-03
*DRIVER U1151:Y
*CELL mx2d1_hd
*C2_R1_C1 2.375e-03 7.370e-03 2.375e-03 
*LOADS
*RC clk_r_REG62_S4:D 3.501e-05
*END

*R_NET n608 4.750e-03
*DRIVER U1150:Y
*CELL mx2d1_hd
*C2_R1_C1 2.375e-03 7.370e-03 2.375e-03 
*LOADS
*RC clk_r_REG65_S4:D 3.501e-05
*END

*R_NET n609 4.750e-03
*DRIVER U1149:Y
*CELL mx2d1_hd
*C2_R1_C1 2.375e-03 7.370e-03 2.375e-03 
*LOADS
*RC clk_r_REG68_S4:D 3.501e-05
*END

*R_NET n610 4.750e-03
*DRIVER U1148:Y
*CELL mx2d1_hd
*C2_R1_C1 2.375e-03 7.370e-03 2.375e-03 
*LOADS
*RC clk_r_REG53_S4:D 3.501e-05
*END

*R_NET n611 4.750e-03
*DRIVER U1181:Y
*CELL mx2d1_hd
*C2_R1_C1 2.375e-03 7.370e-03 2.375e-03 
*LOADS
*RC clk_r_REG226_S5:D 3.501e-05
*END

*R_NET n612 4.750e-03
*DRIVER U1180:Y
*CELL mx2d1_hd
*C2_R1_C1 2.375e-03 7.370e-03 2.375e-03 
*LOADS
*RC clk_r_REG225_S5:D 3.501e-05
*END

*R_NET n613 4.750e-03
*DRIVER U1179:Y
*CELL mx2d1_hd
*C2_R1_C1 2.375e-03 7.370e-03 2.375e-03 
*LOADS
*RC clk_r_REG224_S5:D 3.501e-05
*END

*R_NET n614 4.750e-03
*DRIVER U1178:Y
*CELL mx2d1_hd
*C2_R1_C1 2.375e-03 7.370e-03 2.375e-03 
*LOADS
*RC clk_r_REG223_S5:D 3.501e-05
*END

*R_NET n615 4.750e-03
*DRIVER U1177:Y
*CELL mx2d1_hd
*C2_R1_C1 2.375e-03 7.370e-03 2.375e-03 
*LOADS
*RC clk_r_REG222_S5:D 3.501e-05
*END

*R_NET n616 4.750e-03
*DRIVER U1176:Y
*CELL mx2d1_hd
*C2_R1_C1 2.375e-03 7.370e-03 2.375e-03 
*LOADS
*RC clk_r_REG221_S5:D 3.501e-05
*END

*R_NET n617 4.750e-03
*DRIVER U1175:Y
*CELL mx2d1_hd
*C2_R1_C1 2.375e-03 7.370e-03 2.375e-03 
*LOADS
*RC clk_r_REG220_S5:D 3.501e-05
*END

*R_NET n618 4.750e-03
*DRIVER U1174:Y
*CELL mx2d1_hd
*C2_R1_C1 2.375e-03 7.370e-03 2.375e-03 
*LOADS
*RC clk_r_REG219_S5:D 3.501e-05
*END

*R_NET i_ADS1292_REG_DATA_OUT\[7\] 7.030e-03
*DRIVER i_ADS1292_REG_DATA_OUT\[7\]
*CELL fds2eqd1_hd
*C2_R1_C1 3.515e-03 8.080e-03 3.515e-03 
*LOADS
*RC U152:B 5.680e-05
*END

*R_NET i_ADS1292_REG_DATA_OUT\[6\] 7.030e-03
*DRIVER i_ADS1292_REG_DATA_OUT\[6\]
*CELL fds2eqd1_hd
*C2_R1_C1 3.515e-03 8.080e-03 3.515e-03 
*LOADS
*RC U153:B 5.680e-05
*END

*R_NET i_ADS1292_REG_DATA_OUT\[5\] 7.030e-03
*DRIVER i_ADS1292_REG_DATA_OUT\[5\]
*CELL fds2eqd1_hd
*C2_R1_C1 3.515e-03 8.080e-03 3.515e-03 
*LOADS
*RC U154:B 5.680e-05
*END

*R_NET i_ADS1292_REG_DATA_OUT\[4\] 7.030e-03
*DRIVER i_ADS1292_REG_DATA_OUT\[4\]
*CELL fds2eqd1_hd
*C2_R1_C1 3.515e-03 8.080e-03 3.515e-03 
*LOADS
*RC U155:B 5.680e-05
*END

*R_NET i_ADS1292_REG_DATA_OUT\[3\] 7.030e-03
*DRIVER i_ADS1292_REG_DATA_OUT\[3\]
*CELL fds2eqd1_hd
*C2_R1_C1 3.515e-03 8.080e-03 3.515e-03 
*LOADS
*RC U156:B 5.680e-05
*END

*R_NET i_ADS1292_REG_DATA_OUT\[2\] 7.030e-03
*DRIVER i_ADS1292_REG_DATA_OUT\[2\]
*CELL fds2eqd1_hd
*C2_R1_C1 3.515e-03 8.080e-03 3.515e-03 
*LOADS
*RC U157:B 5.680e-05
*END

*R_NET i_ADS1292_REG_DATA_OUT\[1\] 7.030e-03
*DRIVER i_ADS1292_REG_DATA_OUT\[1\]
*CELL fds2eqd1_hd
*C2_R1_C1 3.515e-03 8.080e-03 3.515e-03 
*LOADS
*RC U158:B 5.680e-05
*END

*R_NET i_ADS1292_REG_DATA_OUT\[0\] 7.030e-03
*DRIVER i_ADS1292_REG_DATA_OUT\[0\]
*CELL fds2eqd1_hd
*C2_R1_C1 3.515e-03 8.080e-03 3.515e-03 
*LOADS
*RC U159:B 5.680e-05
*END

*R_NET i_UART_DATA_TX_READY 2.363e-02
*DRIVER i_UART_DATA_TX_READY
*CELL fd2qd1_hd
*C2_R1_C1 1.181e-02 1.469e-02 1.181e-02 
*LOADS
*RC U910:B 3.471e-04
*RC U22:D 3.471e-04
*END

*R_NET i_UART_DATA_RX_VALID 2.335e-02
*DRIVER i_UART_DATA_RX_VALID
*CELL fd2qd1_hd
*C2_R1_C1 1.167e-02 1.469e-02 1.167e-02 
*LOADS
*RC U926:A 3.430e-04
*RC U380:AN 3.430e-04
*END

*R_NET i_MPR121_INIT_SET 1.468e-02
*DRIVER i_MPR121_INIT_SET
*CELL fd2qd1_hd
*C2_R1_C1 7.340e-03 1.275e-02 7.340e-03 
*LOADS
*RC U1499:A 1.872e-04
*END

*R_NET i_MPR121_BUSY 4.870e-02
*DRIVER i_MPR121_BUSY
*CELL fd2qd1_hd
*C2_R1_C1 2.435e-02 2.338e-02 2.435e-02 
*LOADS
*RC U1523:B 1.139e-03
*RC U1057:A 1.139e-03
*RC U1025:A 1.139e-03
*RC U893:A 1.139e-03
*RC U858:B 1.139e-03
*END

*R_NET i_MPR121_FAIL 1.437e-02
*DRIVER i_MPR121_FAIL
*CELL fd3d1_hd
*C2_R1_C1 7.185e-03 1.275e-02 7.185e-03 
*LOADS
*RC U1523:A 1.832e-04
*RC U1024:A 1.832e-04
*END

*R_NET i_ADS1292_INIT_SET 1.467e-02
*DRIVER i_ADS1292_INIT_SET
*CELL fd2qd1_hd
*C2_R1_C1 7.335e-03 1.275e-02 7.335e-03 
*LOADS
*RC U1499:B 1.870e-04
*END

*R_NET i_ADS1292_FILTERED_DATA_VALID 3.278e-02
*DRIVER i_ADS1292_FILTERED_DATA_VALID
*CELL fd4qd1_hd
*C2_R1_C1 1.639e-02 1.924e-02 1.639e-02 
*LOADS
*RC U1525:A 6.307e-04
*RC U876:A 6.307e-04
*END

*R_NET i_ADS1292_BUSY 3.910e-02
*DRIVER i_ADS1292_BUSY
*CELL fd2qd1_hd
*C2_R1_C1 1.955e-02 2.126e-02 1.955e-02 
*LOADS
*RC U912:A 8.313e-04
*RC U887:A 8.313e-04
*RC U466:AN 8.313e-04
*RC U446:B 8.313e-04
*END

*R_NET i_CLK 3.123e-01
*DRIVER i_CLK
*CELL fj4d1_hd
*C2_R1_C1 1.561e-01 0.000e+00 1.561e-01 
*LOADS
*RC clk_gate_clk_r_REG49_S1_0/latch:CK 0.000e+00
*RC clk_gate_clk_r_REG83_S5_0/latch:CK 0.000e+00
*RC clk_gate_clk_r_REG264_S1_0/latch:CK 0.000e+00
*RC clk_gate_clk_r_REG235_S5_0/latch:CK 0.000e+00
*RC clk_gate_clk_r_REG198_S6_0/latch:CK 0.000e+00
*RC clk_gate_clk_r_REG210_S6_0/latch:CK 0.000e+00
*RC clk_gate_clk_r_REG81_S5_0/latch:CK 0.000e+00
*RC clk_gate_clk_r_REG202_S6_0/latch:CK 0.000e+00
*RC clk_gate_clk_r_REG249_S4_0/latch:CK 0.000e+00
*RC clk_r_REG134_S3:CK 0.000e+00
*RC clk_r_REG151_S4:CK 0.000e+00
*RC clk_r_REG135_S4:CK 0.000e+00
*RC clk_r_REG50_S1:CK 0.000e+00
*RC clk_r_REG108_S1:CK 0.000e+00
*RC clk_r_REG150_S5:CK 0.000e+00
*RC clk_r_REG163_S8:CK 0.000e+00
*RC clk_r_REG272_S3:CK 0.000e+00
*RC clk_r_REG0_S1:CK 0.000e+00
*RC clk_r_REG165_S5:CK 0.000e+00
*RC clk_r_REG212_S5:CK 0.000e+00
*RC clk_r_REG184_S6:CK 0.000e+00
*RC clk_r_REG149_S5:CK 0.000e+00
*RC clk_r_REG158_S9:CK 0.000e+00
*RC clk_r_REG155_S7:CK 0.000e+00
*RC clk_r_REG166_S5:CK 0.000e+00
*RC clk_r_REG136_S4:CK 0.000e+00
*RC clk_r_REG183_S5:CK 0.000e+00
*RC clk_r_REG185_S7:CK 0.000e+00
*RC clk_r_REG156_S8:CK 0.000e+00
*RC clk_r_REG275_S2:CK 0.000e+00
*RC clk_r_REG274_S2:CK 0.000e+00
*RC clk_r_REG273_S2:CK 0.000e+00
*RC clk_r_REG271_S2:CK 0.000e+00
*RC clk_r_REG162_S9:CK 0.000e+00
*RC clk_r_REG161_S9:CK 0.000e+00
*RC clk_r_REG152_S6:CK 0.000e+00
*RC clk_r_REG226_S5:CK 0.000e+00
*RC clk_r_REG225_S5:CK 0.000e+00
*RC clk_r_REG224_S5:CK 0.000e+00
*RC clk_r_REG223_S5:CK 0.000e+00
*RC clk_r_REG222_S5:CK 0.000e+00
*RC clk_r_REG221_S5:CK 0.000e+00
*RC clk_r_REG220_S5:CK 0.000e+00
*RC clk_r_REG219_S5:CK 0.000e+00
*RC clk_r_REG252_S5:CK 0.000e+00
*RC clk_r_REG109_S2:CK 0.000e+00
*RC clk_r_REG51_S2:CK 0.000e+00
*RC clk_r_REG73_S3:CK 0.000e+00
*RC clk_r_REG70_S3:CK 0.000e+00
*RC clk_r_REG160_S7:CK 0.000e+00
*RC clk_r_REG63_S3:CK 0.000e+00
*RC clk_r_REG57_S3:CK 0.000e+00
*RC clk_r_REG60_S3:CK 0.000e+00
*RC clk_r_REG69_S3:CK 0.000e+00
*RC clk_r_REG54_S3:CK 0.000e+00
*RC clk_r_REG66_S3:CK 0.000e+00
*RC clk_r_REG182_S6:CK 0.000e+00
*RC clk_r_REG180_S6:CK 0.000e+00
*RC clk_r_REG178_S6:CK 0.000e+00
*RC clk_r_REG176_S6:CK 0.000e+00
*RC clk_r_REG174_S6:CK 0.000e+00
*RC clk_r_REG172_S6:CK 0.000e+00
*RC clk_r_REG170_S6:CK 0.000e+00
*RC clk_r_REG154_S6:CK 0.000e+00
*RC clk_r_REG218_S5:CK 0.000e+00
*RC clk_r_REG217_S5:CK 0.000e+00
*RC clk_r_REG216_S5:CK 0.000e+00
*RC clk_r_REG215_S5:CK 0.000e+00
*RC clk_r_REG236_S4:CK 0.000e+00
*RC clk_r_REG245_S4:CK 0.000e+00
*RC clk_r_REG248_S4:CK 0.000e+00
*RC clk_r_REG247_S4:CK 0.000e+00
*RC clk_r_REG75_S4:CK 0.000e+00
*RC clk_r_REG72_S4:CK 0.000e+00
*RC clk_r_REG68_S4:CK 0.000e+00
*RC clk_r_REG65_S4:CK 0.000e+00
*RC clk_r_REG62_S4:CK 0.000e+00
*RC clk_r_REG59_S4:CK 0.000e+00
*RC clk_r_REG56_S4:CK 0.000e+00
*RC clk_r_REG53_S4:CK 0.000e+00
*RC clk_r_REG254_S2:CK 0.000e+00
*RC clk_r_REG214_S5:CK 0.000e+00