*SPEF "IEEE 1481-1999"
*DESIGN "sensor_core"
*DATE "Tue Jun  9 06:05:32 2020"
*VENDOR "SYNOPSYS INC"
*PROGRAM "Synopsys Design Compiler cmos"
*VERSION "F-2011.09-SP5-3"
*DESIGN_FLOW "SYNTHESIS"
*DIVIDER /
*DELIMITER :
*BUS_DELIMITER []
*T_UNIT 1.0 NS
*C_UNIT 1.0 PF
*R_UNIT 1.0 KOHM
*L_UNIT 1.0 HENRY

*PORTS

o_UART_DATA_TX\[55\] O *L 1.035e-02 *S 2.188e-01 2.321e-01 
o_UART_DATA_TX\[54\] O *L 1.035e-02 *S 2.188e-01 2.321e-01 
o_UART_DATA_TX\[53\] O *L 1.035e-02 *S 2.182e-01 2.316e-01 
o_UART_DATA_TX\[52\] O *L 1.035e-02 *S 9.670e-02 6.855e-02 
o_UART_DATA_TX\[51\] O *L 1.035e-02 *S 2.188e-01 2.321e-01 
o_UART_DATA_TX\[50\] O *L 1.035e-02 *S 2.188e-01 2.321e-01 
o_UART_DATA_TX\[49\] O *L 1.035e-02 *S 2.188e-01 2.321e-01 
o_UART_DATA_TX\[48\] O *L 1.035e-02 *S 2.188e-01 2.321e-01 
o_UART_DATA_TX\[47\] O *L 1.035e-02 *S 2.188e-01 2.321e-01 
o_UART_DATA_TX\[46\] O *L 1.035e-02 *S 2.188e-01 2.321e-01 
o_UART_DATA_TX\[45\] O *L 1.035e-02 *S 2.188e-01 2.321e-01 
o_UART_DATA_TX\[44\] O *L 1.035e-02 *S 2.188e-01 2.321e-01 
o_UART_DATA_TX\[43\] O *L 1.035e-02 *S 2.188e-01 2.321e-01 
o_UART_DATA_TX\[42\] O *L 1.035e-02 *S 2.188e-01 2.321e-01 
o_UART_DATA_TX\[41\] O *L 1.035e-02 *S 2.188e-01 2.321e-01 
o_UART_DATA_TX\[40\] O *L 1.035e-02 *S 2.188e-01 2.321e-01 
o_UART_DATA_TX\[39\] O *L 1.035e-02 *S 2.188e-01 2.321e-01 
o_UART_DATA_TX\[38\] O *L 1.035e-02 *S 2.188e-01 2.321e-01 
o_UART_DATA_TX\[37\] O *L 1.035e-02 *S 2.188e-01 2.321e-01 
o_UART_DATA_TX\[36\] O *L 1.035e-02 *S 2.188e-01 2.321e-01 
o_UART_DATA_TX\[35\] O *L 1.035e-02 *S 2.188e-01 2.321e-01 
o_UART_DATA_TX\[34\] O *L 1.035e-02 *S 2.188e-01 2.321e-01 
o_UART_DATA_TX\[33\] O *L 1.035e-02 *S 2.188e-01 2.321e-01 
o_UART_DATA_TX\[32\] O *L 1.035e-02 *S 2.188e-01 2.321e-01 
o_UART_DATA_TX\[31\] O *L 1.035e-02 *S 2.188e-01 2.321e-01 
o_UART_DATA_TX\[30\] O *L 1.035e-02 *S 2.188e-01 2.321e-01 
o_UART_DATA_TX\[29\] O *L 1.035e-02 *S 2.188e-01 2.321e-01 
o_UART_DATA_TX\[28\] O *L 1.035e-02 *S 2.188e-01 2.321e-01 
o_UART_DATA_TX\[27\] O *L 1.035e-02 *S 2.188e-01 2.321e-01 
o_UART_DATA_TX\[26\] O *L 1.035e-02 *S 2.188e-01 2.321e-01 
o_UART_DATA_TX\[25\] O *L 1.035e-02 *S 2.188e-01 2.321e-01 
o_UART_DATA_TX\[24\] O *L 1.035e-02 *S 2.188e-01 2.321e-01 
o_UART_DATA_TX\[23\] O *L 1.035e-02 *S 9.670e-02 6.855e-02 
o_UART_DATA_TX\[22\] O *L 1.035e-02 *S 9.670e-02 6.855e-02 
o_UART_DATA_TX\[21\] O *L 1.035e-02 *S 9.670e-02 6.855e-02 
o_UART_DATA_TX\[20\] O *L 1.035e-02 *S 9.670e-02 6.855e-02 
o_UART_DATA_TX\[19\] O *L 1.035e-02 *S 2.188e-01 2.321e-01 
o_UART_DATA_TX\[18\] O *L 1.035e-02 *S 2.188e-01 2.321e-01 
o_UART_DATA_TX\[17\] O *L 1.035e-02 *S 2.188e-01 2.321e-01 
o_UART_DATA_TX\[16\] O *L 1.035e-02 *S 2.188e-01 2.321e-01 
o_UART_DATA_TX\[15\] O *L 1.035e-02 *S 2.188e-01 2.321e-01 
o_UART_DATA_TX\[14\] O *L 1.035e-02 *S 2.188e-01 2.321e-01 
o_UART_DATA_TX\[13\] O *L 1.035e-02 *S 2.188e-01 2.321e-01 
o_UART_DATA_TX\[12\] O *L 1.035e-02 *S 2.188e-01 2.321e-01 
o_UART_DATA_TX\[11\] O *L 1.035e-02 *S 2.188e-01 2.321e-01 
o_UART_DATA_TX\[10\] O *L 1.035e-02 *S 2.188e-01 2.321e-01 
o_UART_DATA_TX\[9\] O *L 1.035e-02 *S 2.188e-01 2.321e-01 
o_UART_DATA_TX\[8\] O *L 1.035e-02 *S 2.188e-01 2.321e-01 
o_UART_DATA_TX\[7\] O *L 1.035e-02 *S 2.188e-01 2.321e-01 
o_UART_DATA_TX\[6\] O *L 1.035e-02 *S 9.670e-02 6.855e-02 
o_UART_DATA_TX\[5\] O *L 1.035e-02 *S 2.188e-01 2.321e-01 
o_UART_DATA_TX\[4\] O *L 1.035e-02 *S 2.188e-01 2.321e-01 
o_UART_DATA_TX\[3\] O *L 1.035e-02 *S 2.188e-01 2.321e-01 
o_UART_DATA_TX\[2\] O *L 1.035e-02 *S 9.670e-02 6.855e-02 
o_UART_DATA_TX\[1\] O *L 1.035e-02 *S 2.188e-01 2.321e-01 
o_UART_DATA_TX\[0\] O *L 1.035e-02 *S 2.188e-01 2.321e-01 
o_UART_DATA_TX_VALID O *L 1.035e-02 *S 3.700e-01 3.504e-01 
i_UART_DATA_TX_READY I *L 1.900e-03 *S 2.168e-01 2.302e-01 *D fd4qd1_hd 
i_UART_DATA_RX\[15\] I *L 1.900e-03 *S 1.468e-01 1.667e-01 *D fd4qd1_hd 
i_UART_DATA_RX\[14\] I *L 1.900e-03 *S 1.468e-01 1.667e-01 *D fd4qd1_hd 
i_UART_DATA_RX\[13\] I *L 1.900e-03 *S 1.468e-01 1.667e-01 *D fd4qd1_hd 
i_UART_DATA_RX\[12\] I *L 1.900e-03 *S 1.468e-01 1.667e-01 *D fd4qd1_hd 
i_UART_DATA_RX\[11\] I *L 1.900e-03 *S 1.468e-01 1.667e-01 *D fd4qd1_hd 
i_UART_DATA_RX\[10\] I *L 1.900e-03 *S 1.468e-01 1.667e-01 *D fd4qd1_hd 
i_UART_DATA_RX\[9\] I *L 1.900e-03 *S 1.468e-01 1.667e-01 *D fd4qd1_hd 
i_UART_DATA_RX\[8\] I *L 1.900e-03 *S 1.468e-01 1.667e-01 *D fd4qd1_hd 
i_UART_DATA_RX\[7\] I *L 1.900e-03 *S 1.468e-01 1.667e-01 *D fd4qd1_hd 
i_UART_DATA_RX\[6\] I *L 1.900e-03 *S 1.468e-01 1.667e-01 *D fd4qd1_hd 
i_UART_DATA_RX\[5\] I *L 1.900e-03 *S 1.468e-01 1.667e-01 *D fd4qd1_hd 
i_UART_DATA_RX\[4\] I *L 1.900e-03 *S 1.468e-01 1.667e-01 *D fd4qd1_hd 
i_UART_DATA_RX\[3\] I *L 1.900e-03 *S 1.468e-01 1.667e-01 *D fd4qd1_hd 
i_UART_DATA_RX\[2\] I *L 1.900e-03 *S 1.468e-01 1.667e-01 *D fd4qd1_hd 
i_UART_DATA_RX\[1\] I *L 1.900e-03 *S 1.468e-01 1.667e-01 *D fd4qd1_hd 
i_UART_DATA_RX\[0\] I *L 1.900e-03 *S 1.468e-01 1.667e-01 *D fd4qd1_hd 
i_UART_DATA_RX_VALID I *L 1.900e-03 *S 2.195e-01 2.323e-01 *D fd4qd1_hd 
i_MPR121_DATA_OUT\[7\] I *L 1.900e-03 *S 1.508e-01 1.706e-01 *D fd4qd1_hd 
i_MPR121_DATA_OUT\[6\] I *L 1.900e-03 *S 1.508e-01 1.706e-01 *D fd4qd1_hd 
i_MPR121_DATA_OUT\[5\] I *L 1.900e-03 *S 1.508e-01 1.706e-01 *D fd4qd1_hd 
i_MPR121_DATA_OUT\[4\] I *L 1.900e-03 *S 1.508e-01 1.706e-01 *D fd4qd1_hd 
i_MPR121_DATA_OUT\[3\] I *L 1.900e-03 *S 1.508e-01 1.706e-01 *D fd4qd1_hd 
i_MPR121_DATA_OUT\[2\] I *L 1.900e-03 *S 1.508e-01 1.706e-01 *D fd4qd1_hd 
i_MPR121_DATA_OUT\[1\] I *L 1.900e-03 *S 1.508e-01 1.706e-01 *D fd4qd1_hd 
i_MPR121_DATA_OUT\[0\] I *L 1.900e-03 *S 1.508e-01 1.706e-01 *D fd4qd1_hd 
o_MPR121_REG_ADDR\[7\] O *L 1.035e-02 *S 2.188e-01 2.321e-01 
o_MPR121_REG_ADDR\[6\] O *L 1.035e-02 *S 2.188e-01 2.321e-01 
o_MPR121_REG_ADDR\[5\] O *L 1.035e-02 *S 2.188e-01 2.321e-01 
o_MPR121_REG_ADDR\[4\] O *L 1.035e-02 *S 2.188e-01 2.321e-01 
o_MPR121_REG_ADDR\[3\] O *L 1.035e-02 *S 2.188e-01 2.321e-01 
o_MPR121_REG_ADDR\[2\] O *L 1.035e-02 *S 2.188e-01 2.321e-01 
o_MPR121_REG_ADDR\[1\] O *L 1.035e-02 *S 2.188e-01 2.321e-01 
o_MPR121_REG_ADDR\[0\] O *L 1.035e-02 *S 2.188e-01 2.321e-01 
o_MPR121_DATA_IN\[7\] O *L 1.035e-02 *S 2.188e-01 2.321e-01 
o_MPR121_DATA_IN\[6\] O *L 1.035e-02 *S 2.188e-01 2.321e-01 
o_MPR121_DATA_IN\[5\] O *L 1.035e-02 *S 9.670e-02 6.855e-02 
o_MPR121_DATA_IN\[4\] O *L 1.035e-02 *S 2.188e-01 2.321e-01 
o_MPR121_DATA_IN\[3\] O *L 1.035e-02 *S 2.188e-01 2.321e-01 
o_MPR121_DATA_IN\[2\] O *L 1.035e-02 *S 2.188e-01 2.321e-01 
o_MPR121_DATA_IN\[1\] O *L 1.035e-02 *S 2.188e-01 2.321e-01 
o_MPR121_DATA_IN\[0\] O *L 1.035e-02 *S 2.188e-01 2.321e-01 
o_MPR121_WRITE_ENABLE O *L 1.035e-02 *S 3.700e-01 3.504e-01 
o_MPR121_READ_ENABLE O *L 1.035e-02 *S 3.307e-01 3.206e-01 
i_MPR121_INIT_SET I *L 1.900e-03 *S 1.507e-01 1.705e-01 *D fd4qd1_hd 
i_MPR121_BUSY I *L 1.900e-03 *S 4.181e-01 3.819e-01 *D fd4qd1_hd 
i_MPR121_FAIL I *L 0.000e+00 *S 1.428e-01 1.082e-01 *D fd3d1_hd 
o_MPR121_ERROR O *L 1.035e-02 *S 1.541e-01 1.742e-01 
i_ADS1292_FILTERED_DATA_OUT\[23\] I *L 1.900e-03 *S 1.455e-01 1.655e-01 *D fd4qd1_hd 
i_ADS1292_FILTERED_DATA_OUT\[22\] I *L 1.900e-03 *S 1.455e-01 1.655e-01 *D fd4qd1_hd 
i_ADS1292_FILTERED_DATA_OUT\[21\] I *L 1.900e-03 *S 1.455e-01 1.655e-01 *D fd4qd1_hd 
i_ADS1292_FILTERED_DATA_OUT\[20\] I *L 1.900e-03 *S 1.455e-01 1.655e-01 *D fd4qd1_hd 
i_ADS1292_FILTERED_DATA_OUT\[19\] I *L 1.900e-03 *S 1.455e-01 1.655e-01 *D fd4qd1_hd 
i_ADS1292_FILTERED_DATA_OUT\[18\] I *L 1.900e-03 *S 1.455e-01 1.655e-01 *D fd4qd1_hd 
i_ADS1292_FILTERED_DATA_OUT\[17\] I *L 1.900e-03 *S 1.455e-01 1.655e-01 *D fd4qd1_hd 
i_ADS1292_FILTERED_DATA_OUT\[16\] I *L 1.900e-03 *S 1.455e-01 1.655e-01 *D fd4qd1_hd 
i_ADS1292_FILTERED_DATA_OUT\[15\] I *L 1.900e-03 *S 1.455e-01 1.655e-01 *D fd4qd1_hd 
i_ADS1292_FILTERED_DATA_OUT\[14\] I *L 1.900e-03 *S 1.455e-01 1.655e-01 *D fd4qd1_hd 
i_ADS1292_FILTERED_DATA_OUT\[13\] I *L 1.900e-03 *S 1.455e-01 1.655e-01 *D fd4qd1_hd 
i_ADS1292_FILTERED_DATA_OUT\[12\] I *L 1.900e-03 *S 1.455e-01 1.655e-01 *D fd4qd1_hd 
i_ADS1292_FILTERED_DATA_OUT\[11\] I *L 1.900e-03 *S 1.455e-01 1.655e-01 *D fd4qd1_hd 
i_ADS1292_FILTERED_DATA_OUT\[10\] I *L 1.900e-03 *S 1.455e-01 1.655e-01 *D fd4qd1_hd 
i_ADS1292_FILTERED_DATA_OUT\[9\] I *L 1.900e-03 *S 1.455e-01 1.655e-01 *D fd4qd1_hd 
i_ADS1292_FILTERED_DATA_OUT\[8\] I *L 1.900e-03 *S 1.455e-01 1.655e-01 *D fd4qd1_hd 
i_ADS1292_FILTERED_DATA_OUT\[7\] I *L 1.900e-03 *S 1.455e-01 1.655e-01 *D fd4qd1_hd 
i_ADS1292_FILTERED_DATA_OUT\[6\] I *L 1.900e-03 *S 1.455e-01 1.655e-01 *D fd4qd1_hd 
i_ADS1292_FILTERED_DATA_OUT\[5\] I *L 1.900e-03 *S 1.455e-01 1.655e-01 *D fd4qd1_hd 
i_ADS1292_FILTERED_DATA_OUT\[4\] I *L 1.900e-03 *S 1.455e-01 1.655e-01 *D fd4qd1_hd 
i_ADS1292_FILTERED_DATA_OUT\[3\] I *L 1.900e-03 *S 1.455e-01 1.655e-01 *D fd4qd1_hd 
i_ADS1292_FILTERED_DATA_OUT\[2\] I *L 1.900e-03 *S 1.455e-01 1.655e-01 *D fd4qd1_hd 
i_ADS1292_FILTERED_DATA_OUT\[1\] I *L 1.900e-03 *S 1.455e-01 1.655e-01 *D fd4qd1_hd 
i_ADS1292_FILTERED_DATA_OUT\[0\] I *L 1.900e-03 *S 1.455e-01 1.655e-01 *D fd4qd1_hd 
o_ADS1292_CONTROL\[2\] O *L 1.035e-02 *S 5.337e-01 4.581e-01 
o_ADS1292_CONTROL\[1\] O *L 1.035e-02 *S 5.337e-01 4.581e-01 
o_ADS1292_CONTROL\[0\] O *L 1.035e-02 *S 3.700e-01 3.504e-01 
o_ADS1292_REG_ADDR\[7\] O *L 1.035e-02 *S 2.188e-01 2.321e-01 
o_ADS1292_REG_ADDR\[6\] O *L 1.035e-02 *S 2.188e-01 2.321e-01 
o_ADS1292_REG_ADDR\[5\] O *L 1.035e-02 *S 2.188e-01 2.321e-01 
o_ADS1292_REG_ADDR\[4\] O *L 1.035e-02 *S 2.188e-01 2.321e-01 
o_ADS1292_REG_ADDR\[3\] O *L 1.035e-02 *S 2.188e-01 2.321e-01 
o_ADS1292_REG_ADDR\[2\] O *L 1.035e-02 *S 2.188e-01 2.321e-01 
o_ADS1292_REG_ADDR\[1\] O *L 1.035e-02 *S 2.188e-01 2.321e-01 
o_ADS1292_REG_ADDR\[0\] O *L 1.035e-02 *S 2.188e-01 2.321e-01 
o_ADS1292_DATA_IN\[7\] O *L 1.035e-02 *S 2.188e-01 2.321e-01 
o_ADS1292_DATA_IN\[6\] O *L 1.035e-02 *S 2.188e-01 2.321e-01 
o_ADS1292_DATA_IN\[5\] O *L 1.035e-02 *S 2.188e-01 2.321e-01 
o_ADS1292_DATA_IN\[4\] O *L 1.035e-02 *S 2.188e-01 2.321e-01 
o_ADS1292_DATA_IN\[3\] O *L 1.035e-02 *S 2.188e-01 2.321e-01 
o_ADS1292_DATA_IN\[2\] O *L 1.035e-02 *S 2.188e-01 2.321e-01 
o_ADS1292_DATA_IN\[1\] O *L 1.035e-02 *S 2.188e-01 2.321e-01 
o_ADS1292_DATA_IN\[0\] O *L 1.035e-02 *S 2.188e-01 2.321e-01 
i_ADS1292_REG_DATA_OUT\[7\] I *L 0.000e+00 *S 6.886e-02 6.395e-02 *D fds2eqd1_hd 
i_ADS1292_REG_DATA_OUT\[6\] I *L 0.000e+00 *S 6.886e-02 6.395e-02 *D fds2eqd1_hd 
i_ADS1292_REG_DATA_OUT\[5\] I *L 0.000e+00 *S 6.886e-02 6.395e-02 *D fds2eqd1_hd 
i_ADS1292_REG_DATA_OUT\[4\] I *L 0.000e+00 *S 6.886e-02 6.395e-02 *D fds2eqd1_hd 
i_ADS1292_REG_DATA_OUT\[3\] I *L 0.000e+00 *S 6.886e-02 6.395e-02 *D fds2eqd1_hd 
i_ADS1292_REG_DATA_OUT\[2\] I *L 0.000e+00 *S 6.886e-02 6.395e-02 *D fds2eqd1_hd 
i_ADS1292_REG_DATA_OUT\[1\] I *L 0.000e+00 *S 6.886e-02 6.395e-02 *D fds2eqd1_hd 
i_ADS1292_REG_DATA_OUT\[0\] I *L 0.000e+00 *S 6.886e-02 6.395e-02 *D fds2eqd1_hd 
i_ADS1292_INIT_SET I *L 1.530e-03 *S 1.474e-01 1.673e-01 *D fd4qd1_hd 
i_ADS1292_FILTERED_DATA_VALID I *L 3.950e-03 *S 2.952e-01 2.923e-01 *D fd4qd1_hd 
o_ADS1292_FILTERED_DATA_ACK O *L 1.035e-02 *S 2.188e-01 2.321e-01 
i_ADS1292_BUSY I *L 2.040e-03 *S 3.460e-01 3.324e-01 *D fd4qd1_hd 
i_CLK I *L 0.000e+00 *S 0.000e+00 0.000e+00 *D ft2d1_hd 
i_RST I *L 0.000e+00 *S 0.000e+00 0.000e+00 *D ivd8_hd 

*R_NET n1326 4.750e-03
*DRIVER U1357:Y
*CELL mx2d1_hd
*C2_R1_C1 2.375e-03 7.370e-03 2.375e-03 
*LOADS
*RC clk_r_REG48_S1:D 3.501e-05
*END

*R_NET n1327 4.750e-03
*DRIVER U1356:Y
*CELL mx2d1_hd
*C2_R1_C1 2.375e-03 7.370e-03 2.375e-03 
*LOADS
*RC clk_r_REG47_S1:D 3.501e-05
*END

*R_NET n1328 4.750e-03
*DRIVER U6:Y
*CELL or2d1_hd
*C2_R1_C1 2.375e-03 7.370e-03 2.375e-03 
*LOADS
*RC clk_r_REG0_S1:D 3.501e-05
*END

*R_NET n1329 4.750e-03
*DRIVER U1354:Y
*CELL mx2d1_hd
*C2_R1_C1 2.375e-03 7.370e-03 2.375e-03 
*LOADS
*RC clk_r_REG46_S1:D 3.501e-05
*END

*R_NET n1330 4.750e-03
*DRIVER U1353:Y
*CELL mx2d1_hd
*C2_R1_C1 2.375e-03 7.370e-03 2.375e-03 
*LOADS
*RC clk_r_REG45_S1:D 3.501e-05
*END

*R_NET n1331 4.750e-03
*DRIVER U1352:Y
*CELL mx2d1_hd
*C2_R1_C1 2.375e-03 7.370e-03 2.375e-03 
*LOADS
*RC clk_r_REG44_S1:D 3.501e-05
*END

*R_NET n1332 4.750e-03
*DRIVER U1351:Y
*CELL mx2d1_hd
*C2_R1_C1 2.375e-03 7.370e-03 2.375e-03 
*LOADS
*RC clk_r_REG43_S1:D 3.501e-05
*END

*R_NET n1333 4.750e-03
*DRIVER U1350:Y
*CELL mx2d1_hd
*C2_R1_C1 2.375e-03 7.370e-03 2.375e-03 
*LOADS
*RC clk_r_REG42_S1:D 3.501e-05
*END

*R_NET n1334 4.750e-03
*DRIVER U1349:Y
*CELL mx2d1_hd
*C2_R1_C1 2.375e-03 7.370e-03 2.375e-03 
*LOADS
*RC clk_r_REG41_S1:D 3.501e-05
*END

*R_NET n1335 4.750e-03
*DRIVER U1348:Y
*CELL mx2d1_hd
*C2_R1_C1 2.375e-03 7.370e-03 2.375e-03 
*LOADS
*RC clk_r_REG40_S1:D 3.501e-05
*END

*R_NET n1336 4.750e-03
*DRIVER U1347:Y
*CELL mx2d1_hd
*C2_R1_C1 2.375e-03 7.370e-03 2.375e-03 
*LOADS
*RC clk_r_REG39_S1:D 3.501e-05
*END

*R_NET n1337 4.750e-03
*DRIVER U1346:Y
*CELL mx2d1_hd
*C2_R1_C1 2.375e-03 7.370e-03 2.375e-03 
*LOADS
*RC clk_r_REG38_S1:D 3.501e-05
*END

*R_NET n1338 4.750e-03
*DRIVER U1345:Y
*CELL mx2d1_hd
*C2_R1_C1 2.375e-03 7.370e-03 2.375e-03 
*LOADS
*RC clk_r_REG37_S1:D 3.501e-05
*END

*R_NET n1339 4.750e-03
*DRIVER U1344:Y
*CELL mx2d1_hd
*C2_R1_C1 2.375e-03 7.370e-03 2.375e-03 
*LOADS
*RC clk_r_REG36_S1:D 3.501e-05
*END

*R_NET n1340 4.750e-03
*DRIVER U1343:Y
*CELL mx2d1_hd
*C2_R1_C1 2.375e-03 7.370e-03 2.375e-03 
*LOADS
*RC clk_r_REG35_S1:D 3.501e-05
*END

*R_NET n1341 4.750e-03
*DRIVER U1342:Y
*CELL mx2d1_hd
*C2_R1_C1 2.375e-03 7.370e-03 2.375e-03 
*LOADS
*RC clk_r_REG34_S1:D 3.501e-05
*END

*R_NET n1342 4.750e-03
*DRIVER U1341:Y
*CELL mx2d1_hd
*C2_R1_C1 2.375e-03 7.370e-03 2.375e-03 
*LOADS
*RC clk_r_REG33_S1:D 3.501e-05
*END

*R_NET n1343 4.750e-03
*DRIVER U1340:Y
*CELL mx2d1_hd
*C2_R1_C1 2.375e-03 7.370e-03 2.375e-03 
*LOADS
*RC clk_r_REG32_S1:D 3.501e-05
*END

*R_NET n1344 4.750e-03
*DRIVER U1339:Y
*CELL mx2d1_hd
*C2_R1_C1 2.375e-03 7.370e-03 2.375e-03 
*LOADS
*RC clk_r_REG31_S1:D 3.501e-05
*END

*R_NET n1345 4.750e-03
*DRIVER U1338:Y
*CELL mx2d1_hd
*C2_R1_C1 2.375e-03 7.370e-03 2.375e-03 
*LOADS
*RC clk_r_REG30_S1:D 3.501e-05
*END

*R_NET n1346 4.750e-03
*DRIVER U1337:Y
*CELL mx2d1_hd
*C2_R1_C1 2.375e-03 7.370e-03 2.375e-03 
*LOADS
*RC clk_r_REG29_S1:D 3.501e-05
*END

*R_NET n1347 4.750e-03
*DRIVER U1336:Y
*CELL mx2d1_hd
*C2_R1_C1 2.375e-03 7.370e-03 2.375e-03 
*LOADS
*RC clk_r_REG28_S1:D 3.501e-05
*END

*R_NET n1348 4.750e-03
*DRIVER U1335:Y
*CELL mx2d1_hd
*C2_R1_C1 2.375e-03 7.370e-03 2.375e-03 
*LOADS
*RC clk_r_REG27_S1:D 3.501e-05
*END

*R_NET n1349 4.750e-03
*DRIVER U1334:Y
*CELL mx2d1_hd
*C2_R1_C1 2.375e-03 7.370e-03 2.375e-03 
*LOADS
*RC clk_r_REG26_S1:D 3.501e-05
*END

*R_NET n1350 4.750e-03
*DRIVER U1333:Y
*CELL mx2d1_hd
*C2_R1_C1 2.375e-03 7.370e-03 2.375e-03 
*LOADS
*RC clk_r_REG25_S1:D 3.501e-05
*END

*R_NET n1351 4.750e-03
*DRIVER U1332:Y
*CELL mx2d1_hd
*C2_R1_C1 2.375e-03 7.370e-03 2.375e-03 
*LOADS
*RC clk_r_REG24_S1:D 3.501e-05
*END

*R_NET n1352 4.750e-03
*DRIVER U1331:Y
*CELL mx2d1_hd
*C2_R1_C1 2.375e-03 7.370e-03 2.375e-03 
*LOADS
*RC clk_r_REG23_S1:D 3.501e-05
*END

*R_NET n1353 4.750e-03
*DRIVER U1330:Y
*CELL mx2d1_hd
*C2_R1_C1 2.375e-03 7.370e-03 2.375e-03 
*LOADS
*RC clk_r_REG22_S1:D 3.501e-05
*END

*R_NET n1354 4.750e-03
*DRIVER U1329:Y
*CELL mx2d1_hd
*C2_R1_C1 2.375e-03 7.370e-03 2.375e-03 
*LOADS
*RC clk_r_REG21_S1:D 3.501e-05
*END

*R_NET n1355 4.750e-03
*DRIVER U1328:Y
*CELL mx2d1_hd
*C2_R1_C1 2.375e-03 7.370e-03 2.375e-03 
*LOADS
*RC clk_r_REG20_S1:D 3.501e-05
*END

*R_NET n1356 4.750e-03
*DRIVER U1327:Y
*CELL mx2d1_hd
*C2_R1_C1 2.375e-03 7.370e-03 2.375e-03 
*LOADS
*RC clk_r_REG19_S1:D 3.501e-05
*END

*R_NET n1357 4.750e-03
*DRIVER U1326:Y
*CELL mx2d1_hd
*C2_R1_C1 2.375e-03 7.370e-03 2.375e-03 
*LOADS
*RC clk_r_REG18_S1:D 3.501e-05
*END

*R_NET n1358 4.750e-03
*DRIVER U1325:Y
*CELL mx2d1_hd
*C2_R1_C1 2.375e-03 7.370e-03 2.375e-03 
*LOADS
*RC clk_r_REG17_S1:D 3.501e-05
*END

*R_NET n1359 4.750e-03
*DRIVER U1324:Y
*CELL mx2d1_hd
*C2_R1_C1 2.375e-03 7.370e-03 2.375e-03 
*LOADS
*RC clk_r_REG16_S1:D 3.501e-05
*END

*R_NET n1360 4.750e-03
*DRIVER U1323:Y
*CELL mx2d1_hd
*C2_R1_C1 2.375e-03 7.370e-03 2.375e-03 
*LOADS
*RC clk_r_REG15_S1:D 3.501e-05
*END

*R_NET n1361 4.750e-03
*DRIVER U1322:Y
*CELL mx2d1_hd
*C2_R1_C1 2.375e-03 7.370e-03 2.375e-03 
*LOADS
*RC clk_r_REG14_S1:D 3.501e-05
*END

*R_NET n1362 4.750e-03
*DRIVER U1321:Y
*CELL mx2d1_hd
*C2_R1_C1 2.375e-03 7.370e-03 2.375e-03 
*LOADS
*RC clk_r_REG13_S1:D 3.501e-05
*END

*R_NET n1363 4.750e-03
*DRIVER U1320:Y
*CELL mx2d1_hd
*C2_R1_C1 2.375e-03 7.370e-03 2.375e-03 
*LOADS
*RC clk_r_REG12_S1:D 3.501e-05
*END

*R_NET n1364 4.750e-03
*DRIVER U1319:Y
*CELL mx2d1_hd
*C2_R1_C1 2.375e-03 7.370e-03 2.375e-03 
*LOADS
*RC clk_r_REG11_S1:D 3.501e-05
*END

*R_NET n1365 4.750e-03
*DRIVER U1318:Y
*CELL mx2d1_hd
*C2_R1_C1 2.375e-03 7.370e-03 2.375e-03 
*LOADS
*RC clk_r_REG10_S1:D 3.501e-05
*END

*R_NET n1366 4.750e-03
*DRIVER U1317:Y
*CELL mx2d1_hd
*C2_R1_C1 2.375e-03 7.370e-03 2.375e-03 
*LOADS
*RC clk_r_REG9_S1:D 3.501e-05
*END

*R_NET n1367 4.750e-03
*DRIVER U1316:Y
*CELL mx2d1_hd
*C2_R1_C1 2.375e-03 7.370e-03 2.375e-03 
*LOADS
*RC clk_r_REG8_S1:D 3.501e-05
*END

*R_NET n1368 4.750e-03
*DRIVER U1315:Y
*CELL mx2d1_hd
*C2_R1_C1 2.375e-03 7.370e-03 2.375e-03 
*LOADS
*RC clk_r_REG7_S1:D 3.501e-05
*END

*R_NET n1369 4.750e-03
*DRIVER U1314:Y
*CELL mx2d1_hd
*C2_R1_C1 2.375e-03 7.370e-03 2.375e-03 
*LOADS
*RC clk_r_REG6_S1:D 3.501e-05
*END

*R_NET n1370 4.750e-03
*DRIVER U1313:Y
*CELL mx2d1_hd
*C2_R1_C1 2.375e-03 7.370e-03 2.375e-03 
*LOADS
*RC clk_r_REG5_S1:D 3.501e-05
*END

*R_NET n1371 4.750e-03
*DRIVER U1312:Y
*CELL mx2d1_hd
*C2_R1_C1 2.375e-03 7.370e-03 2.375e-03 
*LOADS
*RC clk_r_REG4_S1:D 3.501e-05
*END

*R_NET n1372 4.750e-03
*DRIVER U1311:Y
*CELL mx2d1_hd
*C2_R1_C1 2.375e-03 7.370e-03 2.375e-03 
*LOADS
*RC clk_r_REG3_S1:D 3.501e-05
*END

*R_NET n1373 4.750e-03
*DRIVER U1310:Y
*CELL mx2d1_hd
*C2_R1_C1 2.375e-03 7.370e-03 2.375e-03 
*LOADS
*RC clk_r_REG2_S1:D 3.501e-05
*END

*R_NET n1374 4.750e-03
*DRIVER U1309:Y
*CELL mx2d1_hd
*C2_R1_C1 2.375e-03 7.370e-03 2.375e-03 
*LOADS
*RC clk_r_REG1_S1:D 3.501e-05
*END

*R_NET i_UART_DATA_RX\[15\] 1.459e-02
*DRIVER i_UART_DATA_RX\[15\]
*CELL fd4qd1_hd
*C2_R1_C1 7.295e-03 1.275e-02 7.295e-03 
*LOADS
*RC U689:B 1.860e-04
*END

*R_NET i_UART_DATA_RX\[14\] 1.459e-02
*DRIVER i_UART_DATA_RX\[14\]
*CELL fd4qd1_hd
*C2_R1_C1 7.295e-03 1.275e-02 7.295e-03 
*LOADS
*RC U690:B 1.860e-04
*END

*R_NET i_UART_DATA_RX\[13\] 1.459e-02
*DRIVER i_UART_DATA_RX\[13\]
*CELL fd4qd1_hd
*C2_R1_C1 7.295e-03 1.275e-02 7.295e-03 
*LOADS
*RC U691:B 1.860e-04
*END

*R_NET i_UART_DATA_RX\[12\] 1.459e-02
*DRIVER i_UART_DATA_RX\[12\]
*CELL fd4qd1_hd
*C2_R1_C1 7.295e-03 1.275e-02 7.295e-03 
*LOADS
*RC U692:B 1.860e-04
*END

*R_NET i_UART_DATA_RX\[11\] 1.459e-02
*DRIVER i_UART_DATA_RX\[11\]
*CELL fd4qd1_hd
*C2_R1_C1 7.295e-03 1.275e-02 7.295e-03 
*LOADS
*RC U693:B 1.860e-04
*END

*R_NET i_UART_DATA_RX\[10\] 1.459e-02
*DRIVER i_UART_DATA_RX\[10\]
*CELL fd4qd1_hd
*C2_R1_C1 7.295e-03 1.275e-02 7.295e-03 
*LOADS
*RC U694:B 1.860e-04
*END

*R_NET i_UART_DATA_RX\[9\] 1.459e-02
*DRIVER i_UART_DATA_RX\[9\]
*CELL fd4qd1_hd
*C2_R1_C1 7.295e-03 1.275e-02 7.295e-03 
*LOADS
*RC U695:B 1.860e-04
*END

*R_NET i_UART_DATA_RX\[8\] 1.459e-02
*DRIVER i_UART_DATA_RX\[8\]
*CELL fd4qd1_hd
*C2_R1_C1 7.295e-03 1.275e-02 7.295e-03 
*LOADS
*RC U696:B 1.860e-04
*END

*R_NET i_UART_DATA_RX\[7\] 1.459e-02
*DRIVER i_UART_DATA_RX\[7\]
*CELL fd4qd1_hd
*C2_R1_C1 7.295e-03 1.275e-02 7.295e-03 
*LOADS
*RC U697:B 1.860e-04
*END

*R_NET i_UART_DATA_RX\[6\] 1.459e-02
*DRIVER i_UART_DATA_RX\[6\]
*CELL fd4qd1_hd
*C2_R1_C1 7.295e-03 1.275e-02 7.295e-03 
*LOADS
*RC U698:B 1.860e-04
*END

*R_NET i_UART_DATA_RX\[5\] 1.459e-02
*DRIVER i_UART_DATA_RX\[5\]
*CELL fd4qd1_hd
*C2_R1_C1 7.295e-03 1.275e-02 7.295e-03 
*LOADS
*RC U699:B 1.860e-04
*END

*R_NET i_UART_DATA_RX\[4\] 1.459e-02
*DRIVER i_UART_DATA_RX\[4\]
*CELL fd4qd1_hd
*C2_R1_C1 7.295e-03 1.275e-02 7.295e-03 
*LOADS
*RC U700:B 1.860e-04
*END

*R_NET i_UART_DATA_RX\[3\] 1.459e-02
*DRIVER i_UART_DATA_RX\[3\]
*CELL fd4qd1_hd
*C2_R1_C1 7.295e-03 1.275e-02 7.295e-03 
*LOADS
*RC U701:B 1.860e-04
*END

*R_NET i_UART_DATA_RX\[2\] 1.459e-02
*DRIVER i_UART_DATA_RX\[2\]
*CELL fd4qd1_hd
*C2_R1_C1 7.295e-03 1.275e-02 7.295e-03 
*LOADS
*RC U702:B 1.860e-04
*END

*R_NET i_UART_DATA_RX\[1\] 1.459e-02
*DRIVER i_UART_DATA_RX\[1\]
*CELL fd4qd1_hd
*C2_R1_C1 7.295e-03 1.275e-02 7.295e-03 
*LOADS
*RC U703:B 1.860e-04
*END

*R_NET i_UART_DATA_RX\[0\] 1.459e-02
*DRIVER i_UART_DATA_RX\[0\]
*CELL fd4qd1_hd
*C2_R1_C1 7.295e-03 1.275e-02 7.295e-03 
*LOADS
*RC U704:B 1.860e-04
*END

*R_NET i_MPR121_DATA_OUT\[7\] 1.507e-02
*DRIVER i_MPR121_DATA_OUT\[7\]
*CELL fd4qd1_hd
*C2_R1_C1 7.535e-03 1.275e-02 7.535e-03 
*LOADS
*RC U584:A 1.921e-04
*END

*R_NET i_MPR121_DATA_OUT\[6\] 1.507e-02
*DRIVER i_MPR121_DATA_OUT\[6\]
*CELL fd4qd1_hd
*C2_R1_C1 7.535e-03 1.275e-02 7.535e-03 
*LOADS
*RC U586:A 1.921e-04
*END

*R_NET i_MPR121_DATA_OUT\[5\] 1.507e-02
*DRIVER i_MPR121_DATA_OUT\[5\]
*CELL fd4qd1_hd
*C2_R1_C1 7.535e-03 1.275e-02 7.535e-03 
*LOADS
*RC U588:A 1.921e-04
*END

*R_NET i_MPR121_DATA_OUT\[4\] 1.507e-02
*DRIVER i_MPR121_DATA_OUT\[4\]
*CELL fd4qd1_hd
*C2_R1_C1 7.535e-03 1.275e-02 7.535e-03 
*LOADS
*RC U590:A 1.921e-04
*END

*R_NET i_MPR121_DATA_OUT\[3\] 1.507e-02
*DRIVER i_MPR121_DATA_OUT\[3\]
*CELL fd4qd1_hd
*C2_R1_C1 7.535e-03 1.275e-02 7.535e-03 
*LOADS
*RC U592:A 1.921e-04
*END

*R_NET i_MPR121_DATA_OUT\[2\] 1.507e-02
*DRIVER i_MPR121_DATA_OUT\[2\]
*CELL fd4qd1_hd
*C2_R1_C1 7.535e-03 1.275e-02 7.535e-03 
*LOADS
*RC U594:A 1.921e-04
*END

*R_NET i_MPR121_DATA_OUT\[1\] 1.507e-02
*DRIVER i_MPR121_DATA_OUT\[1\]
*CELL fd4qd1_hd
*C2_R1_C1 7.535e-03 1.275e-02 7.535e-03 
*LOADS
*RC U596:A 1.921e-04
*END

*R_NET i_MPR121_DATA_OUT\[0\] 1.507e-02
*DRIVER i_MPR121_DATA_OUT\[0\]
*CELL fd4qd1_hd
*C2_R1_C1 7.535e-03 1.275e-02 7.535e-03 
*LOADS
*RC U598:A 1.921e-04
*END

*R_NET n1376 4.750e-03
*DRIVER U1500:Y
*CELL mx2d1_hd
*C2_R1_C1 2.375e-03 7.370e-03 2.375e-03 
*LOADS
*RC clk_r_REG153_S4:D 3.501e-05
*END

*R_NET n1377 4.750e-03
*DRIVER U1499:Y
*CELL mx2d1_hd
*C2_R1_C1 2.375e-03 7.370e-03 2.375e-03 
*LOADS
*RC clk_r_REG150_S4:D 3.501e-05
*END

*R_NET n1378 4.750e-03
*DRIVER U1498:Y
*CELL mx2d1_hd
*C2_R1_C1 2.375e-03 7.370e-03 2.375e-03 
*LOADS
*RC clk_r_REG132_S4:D 3.501e-05
*END

*R_NET n1379 4.750e-03
*DRIVER U1497:Y
*CELL mx2d1_hd
*C2_R1_C1 2.375e-03 7.370e-03 2.375e-03 
*LOADS
*RC clk_r_REG135_S4:D 3.501e-05
*END

*R_NET n1380 4.750e-03
*DRIVER U1496:Y
*CELL mx2d1_hd
*C2_R1_C1 2.375e-03 7.370e-03 2.375e-03 
*LOADS
*RC clk_r_REG138_S4:D 3.501e-05
*END

*R_NET n1381 4.750e-03
*DRIVER U1495:Y
*CELL mx2d1_hd
*C2_R1_C1 2.375e-03 7.370e-03 2.375e-03 
*LOADS
*RC clk_r_REG141_S4:D 3.501e-05
*END

*R_NET n1382 4.750e-03
*DRIVER U1494:Y
*CELL mx2d1_hd
*C2_R1_C1 2.375e-03 7.370e-03 2.375e-03 
*LOADS
*RC clk_r_REG144_S4:D 3.501e-05
*END

*R_NET n1383 4.750e-03
*DRIVER U1493:Y
*CELL mx2d1_hd
*C2_R1_C1 2.375e-03 7.370e-03 2.375e-03 
*LOADS
*RC clk_r_REG147_S4:D 3.501e-05
*END

*R_NET n1384 4.750e-03
*DRIVER U1539:Y
*CELL mx2d1_hd
*C2_R1_C1 2.375e-03 7.370e-03 2.375e-03 
*LOADS
*RC clk_r_REG198_S6:D 3.501e-05
*END

*R_NET n1385 4.750e-03
*DRIVER U1538:Y
*CELL mx2d1_hd
*C2_R1_C1 2.375e-03 7.370e-03 2.375e-03 
*LOADS
*RC clk_r_REG197_S6:D 3.501e-05
*END

*R_NET n1386 4.750e-03
*DRIVER U1537:Y
*CELL mx2d1_hd
*C2_R1_C1 2.375e-03 7.370e-03 2.375e-03 
*LOADS
*RC clk_r_REG196_S6:D 3.501e-05
*END

*R_NET n1387 4.750e-03
*DRIVER U1536:Y
*CELL mx2d1_hd
*C2_R1_C1 2.375e-03 7.370e-03 2.375e-03 
*LOADS
*RC clk_r_REG195_S6:D 3.501e-05
*END

*R_NET n1388 4.750e-03
*DRIVER U1535:Y
*CELL mx2d1_hd
*C2_R1_C1 2.375e-03 7.370e-03 2.375e-03 
*LOADS
*RC clk_r_REG194_S6:D 3.501e-05
*END

*R_NET n1389 4.750e-03
*DRIVER U1534:Y
*CELL mx2d1_hd
*C2_R1_C1 2.375e-03 7.370e-03 2.375e-03 
*LOADS
*RC clk_r_REG193_S6:D 3.501e-05
*END

*R_NET n1390 4.750e-03
*DRIVER U1533:Y
*CELL mx2d1_hd
*C2_R1_C1 2.375e-03 7.370e-03 2.375e-03 
*LOADS
*RC clk_r_REG192_S6:D 3.501e-05
*END

*R_NET i_ADS1292_FILTERED_DATA_OUT\[23\] 1.444e-02
*DRIVER i_ADS1292_FILTERED_DATA_OUT\[23\]
*CELL fd4qd1_hd
*C2_R1_C1 7.220e-03 1.275e-02 7.220e-03 
*LOADS
*RC U400:A 1.841e-04
*END

*R_NET i_ADS1292_FILTERED_DATA_OUT\[22\] 1.444e-02
*DRIVER i_ADS1292_FILTERED_DATA_OUT\[22\]
*CELL fd4qd1_hd
*C2_R1_C1 7.220e-03 1.275e-02 7.220e-03 
*LOADS
*RC U401:A 1.841e-04
*END

*R_NET i_ADS1292_FILTERED_DATA_OUT\[21\] 1.444e-02
*DRIVER i_ADS1292_FILTERED_DATA_OUT\[21\]
*CELL fd4qd1_hd
*C2_R1_C1 7.220e-03 1.275e-02 7.220e-03 
*LOADS
*RC U402:A 1.841e-04
*END

*R_NET i_ADS1292_FILTERED_DATA_OUT\[20\] 1.444e-02
*DRIVER i_ADS1292_FILTERED_DATA_OUT\[20\]
*CELL fd4qd1_hd
*C2_R1_C1 7.220e-03 1.275e-02 7.220e-03 
*LOADS
*RC U403:A 1.841e-04
*END

*R_NET i_ADS1292_FILTERED_DATA_OUT\[19\] 1.444e-02
*DRIVER i_ADS1292_FILTERED_DATA_OUT\[19\]
*CELL fd4qd1_hd
*C2_R1_C1 7.220e-03 1.275e-02 7.220e-03 
*LOADS
*RC U404:A 1.841e-04
*END

*R_NET i_ADS1292_FILTERED_DATA_OUT\[18\] 1.444e-02
*DRIVER i_ADS1292_FILTERED_DATA_OUT\[18\]
*CELL fd4qd1_hd
*C2_R1_C1 7.220e-03 1.275e-02 7.220e-03 
*LOADS
*RC U405:A 1.841e-04
*END

*R_NET i_ADS1292_FILTERED_DATA_OUT\[17\] 1.444e-02
*DRIVER i_ADS1292_FILTERED_DATA_OUT\[17\]
*CELL fd4qd1_hd
*C2_R1_C1 7.220e-03 1.275e-02 7.220e-03 
*LOADS
*RC U406:A 1.841e-04
*END

*R_NET i_ADS1292_FILTERED_DATA_OUT\[16\] 1.444e-02
*DRIVER i_ADS1292_FILTERED_DATA_OUT\[16\]
*CELL fd4qd1_hd
*C2_R1_C1 7.220e-03 1.275e-02 7.220e-03 
*LOADS
*RC U407:A 1.841e-04
*END

*R_NET i_ADS1292_FILTERED_DATA_OUT\[15\] 1.444e-02
*DRIVER i_ADS1292_FILTERED_DATA_OUT\[15\]
*CELL fd4qd1_hd
*C2_R1_C1 7.220e-03 1.275e-02 7.220e-03 
*LOADS
*RC U408:A 1.841e-04
*END

*R_NET i_ADS1292_FILTERED_DATA_OUT\[14\] 1.444e-02
*DRIVER i_ADS1292_FILTERED_DATA_OUT\[14\]
*CELL fd4qd1_hd
*C2_R1_C1 7.220e-03 1.275e-02 7.220e-03 
*LOADS
*RC U409:A 1.841e-04
*END

*R_NET i_ADS1292_FILTERED_DATA_OUT\[13\] 1.444e-02
*DRIVER i_ADS1292_FILTERED_DATA_OUT\[13\]
*CELL fd4qd1_hd
*C2_R1_C1 7.220e-03 1.275e-02 7.220e-03 
*LOADS
*RC U410:A 1.841e-04
*END

*R_NET i_ADS1292_FILTERED_DATA_OUT\[12\] 1.444e-02
*DRIVER i_ADS1292_FILTERED_DATA_OUT\[12\]
*CELL fd4qd1_hd
*C2_R1_C1 7.220e-03 1.275e-02 7.220e-03 
*LOADS
*RC U411:A 1.841e-04
*END

*R_NET i_ADS1292_FILTERED_DATA_OUT\[11\] 1.444e-02
*DRIVER i_ADS1292_FILTERED_DATA_OUT\[11\]
*CELL fd4qd1_hd
*C2_R1_C1 7.220e-03 1.275e-02 7.220e-03 
*LOADS
*RC U412:A 1.841e-04
*END

*R_NET i_ADS1292_FILTERED_DATA_OUT\[10\] 1.444e-02
*DRIVER i_ADS1292_FILTERED_DATA_OUT\[10\]
*CELL fd4qd1_hd
*C2_R1_C1 7.220e-03 1.275e-02 7.220e-03 
*LOADS
*RC U413:A 1.841e-04
*END

*R_NET i_ADS1292_FILTERED_DATA_OUT\[9\] 1.444e-02
*DRIVER i_ADS1292_FILTERED_DATA_OUT\[9\]
*CELL fd4qd1_hd
*C2_R1_C1 7.220e-03 1.275e-02 7.220e-03 
*LOADS
*RC U414:A 1.841e-04
*END

*R_NET i_ADS1292_FILTERED_DATA_OUT\[8\] 1.444e-02
*DRIVER i_ADS1292_FILTERED_DATA_OUT\[8\]
*CELL fd4qd1_hd
*C2_R1_C1 7.220e-03 1.275e-02 7.220e-03 
*LOADS
*RC U415:A 1.841e-04
*END

*R_NET i_ADS1292_FILTERED_DATA_OUT\[7\] 1.444e-02
*DRIVER i_ADS1292_FILTERED_DATA_OUT\[7\]
*CELL fd4qd1_hd
*C2_R1_C1 7.220e-03 1.275e-02 7.220e-03 
*LOADS
*RC U416:A 1.841e-04
*END

*R_NET i_ADS1292_FILTERED_DATA_OUT\[6\] 1.444e-02
*DRIVER i_ADS1292_FILTERED_DATA_OUT\[6\]
*CELL fd4qd1_hd
*C2_R1_C1 7.220e-03 1.275e-02 7.220e-03 
*LOADS
*RC U417:A 1.841e-04
*END

*R_NET i_ADS1292_FILTERED_DATA_OUT\[5\] 1.444e-02
*DRIVER i_ADS1292_FILTERED_DATA_OUT\[5\]
*CELL fd4qd1_hd
*C2_R1_C1 7.220e-03 1.275e-02 7.220e-03 
*LOADS
*RC U418:A 1.841e-04
*END

*R_NET i_ADS1292_FILTERED_DATA_OUT\[4\] 1.444e-02
*DRIVER i_ADS1292_FILTERED_DATA_OUT\[4\]
*CELL fd4qd1_hd
*C2_R1_C1 7.220e-03 1.275e-02 7.220e-03 
*LOADS
*RC U419:A 1.841e-04
*END

*R_NET i_ADS1292_FILTERED_DATA_OUT\[3\] 1.444e-02
*DRIVER i_ADS1292_FILTERED_DATA_OUT\[3\]
*CELL fd4qd1_hd
*C2_R1_C1 7.220e-03 1.275e-02 7.220e-03 
*LOADS
*RC U420:A 1.841e-04
*END

*R_NET i_ADS1292_FILTERED_DATA_OUT\[2\] 1.444e-02
*DRIVER i_ADS1292_FILTERED_DATA_OUT\[2\]
*CELL fd4qd1_hd
*C2_R1_C1 7.220e-03 1.275e-02 7.220e-03 
*LOADS
*RC U421:A 1.841e-04
*END

*R_NET i_ADS1292_FILTERED_DATA_OUT\[1\] 1.444e-02
*DRIVER i_ADS1292_FILTERED_DATA_OUT\[1\]
*CELL fd4qd1_hd
*C2_R1_C1 7.220e-03 1.275e-02 7.220e-03 
*LOADS
*RC U422:A 1.841e-04
*END

*R_NET i_ADS1292_FILTERED_DATA_OUT\[0\] 1.444e-02
*DRIVER i_ADS1292_FILTERED_DATA_OUT\[0\]
*CELL fd4qd1_hd
*C2_R1_C1 7.220e-03 1.275e-02 7.220e-03 
*LOADS
*RC U423:A 1.841e-04
*END

*R_NET n1394 4.750e-03
*DRIVER U1425:Y
*CELL mx2d1_hd
*C2_R1_C1 2.375e-03 7.370e-03 2.375e-03 
*LOADS
*RC clk_r_REG55_S5:D 3.501e-05
*END

*R_NET n1395 4.750e-03
*DRIVER U1424:Y
*CELL mx2d1_hd
*C2_R1_C1 2.375e-03 7.370e-03 2.375e-03 
*LOADS
*RC clk_r_REG54_S5:D 3.501e-05
*END

*R_NET n1396 4.750e-03
*DRIVER U1422:Y
*CELL mx2d1_hd
*C2_R1_C1 2.375e-03 7.370e-03 2.375e-03 
*LOADS
*RC clk_r_REG56_S5:D 3.501e-05
*END

*R_NET n1397 4.750e-03
*DRIVER U1489:Y
*CELL mx2d1_hd
*C2_R1_C1 2.375e-03 7.370e-03 2.375e-03 
*LOADS
*RC clk_r_REG70_S5:D 3.501e-05
*END

*R_NET n1398 4.750e-03
*DRIVER U1488:Y
*CELL mx2d1_hd
*C2_R1_C1 2.375e-03 7.370e-03 2.375e-03 
*LOADS
*RC clk_r_REG69_S5:D 3.501e-05
*END

*R_NET n1399 4.750e-03
*DRIVER U1487:Y
*CELL mx2d1_hd
*C2_R1_C1 2.375e-03 7.370e-03 2.375e-03 
*LOADS
*RC clk_r_REG68_S5:D 3.501e-05
*END

*R_NET n1400 4.750e-03
*DRIVER U1486:Y
*CELL mx2d1_hd
*C2_R1_C1 2.375e-03 7.370e-03 2.375e-03 
*LOADS
*RC clk_r_REG67_S5:D 3.501e-05
*END

*R_NET n1401 4.750e-03
*DRIVER U1485:Y
*CELL mx2d1_hd
*C2_R1_C1 2.375e-03 7.370e-03 2.375e-03 
*LOADS
*RC clk_r_REG66_S5:D 3.501e-05
*END

*R_NET n1402 4.750e-03
*DRIVER U1484:Y
*CELL mx2d1_hd
*C2_R1_C1 2.375e-03 7.370e-03 2.375e-03 
*LOADS
*RC clk_r_REG65_S5:D 3.501e-05
*END

*R_NET n1403 4.750e-03
*DRIVER U1483:Y
*CELL mx2d1_hd
*C2_R1_C1 2.375e-03 7.370e-03 2.375e-03 
*LOADS
*RC clk_r_REG64_S5:D 3.501e-05
*END

*R_NET n1404 4.750e-03
*DRIVER U1482:Y
*CELL mx2d1_hd
*C2_R1_C1 2.375e-03 7.370e-03 2.375e-03 
*LOADS
*RC clk_r_REG63_S5:D 3.501e-05
*END

*R_NET n1405 4.750e-03
*DRIVER U1510:Y
*CELL mx2d1_hd