*SPEF "IEEE 1481-1999"
*DESIGN "ads1292_controller"
*DATE "Wed May 13 09:57:18 2020"
*VENDOR "SYNOPSYS INC"
*PROGRAM "Synopsys Design Compiler cmos"
*VERSION "F-2011.09-SP5-3"
*DESIGN_FLOW "SYNTHESIS"
*DIVIDER /
*DELIMITER :
*BUS_DELIMITER []
*T_UNIT 1.0 NS
*C_UNIT 1.0 PF
*R_UNIT 1.0 KOHM
*L_UNIT 1.0 HENRY

*PORTS

o_ADS1292_DATA_OUT\[71\] O *L 0.000e+00 *S 6.910e-02 1.009e-01 
o_ADS1292_DATA_OUT\[70\] O *L 0.000e+00 *S 6.910e-02 1.009e-01 
o_ADS1292_DATA_OUT\[69\] O *L 0.000e+00 *S 6.910e-02 1.009e-01 
o_ADS1292_DATA_OUT\[68\] O *L 0.000e+00 *S 6.910e-02 1.009e-01 
o_ADS1292_DATA_OUT\[67\] O *L 0.000e+00 *S 6.910e-02 1.009e-01 
o_ADS1292_DATA_OUT\[66\] O *L 0.000e+00 *S 6.910e-02 1.009e-01 
o_ADS1292_DATA_OUT\[65\] O *L 0.000e+00 *S 6.910e-02 1.009e-01 
o_ADS1292_DATA_OUT\[64\] O *L 0.000e+00 *S 6.910e-02 1.009e-01 
o_ADS1292_DATA_OUT\[63\] O *L 0.000e+00 *S 1.139e-01 1.529e-01 
o_ADS1292_DATA_OUT\[62\] O *L 0.000e+00 *S 1.139e-01 1.529e-01 
o_ADS1292_DATA_OUT\[61\] O *L 0.000e+00 *S 1.139e-01 1.529e-01 
o_ADS1292_DATA_OUT\[60\] O *L 0.000e+00 *S 1.139e-01 1.529e-01 
o_ADS1292_DATA_OUT\[59\] O *L 0.000e+00 *S 1.139e-01 1.529e-01 
o_ADS1292_DATA_OUT\[58\] O *L 0.000e+00 *S 1.139e-01 1.529e-01 
o_ADS1292_DATA_OUT\[57\] O *L 0.000e+00 *S 1.139e-01 1.529e-01 
o_ADS1292_DATA_OUT\[56\] O *L 0.000e+00 *S 1.139e-01 1.529e-01 
o_ADS1292_DATA_OUT\[55\] O *L 0.000e+00 *S 1.139e-01 1.529e-01 
o_ADS1292_DATA_OUT\[54\] O *L 0.000e+00 *S 1.139e-01 1.529e-01 
o_ADS1292_DATA_OUT\[53\] O *L 0.000e+00 *S 1.139e-01 1.529e-01 
o_ADS1292_DATA_OUT\[52\] O *L 0.000e+00 *S 1.139e-01 1.529e-01 
o_ADS1292_DATA_OUT\[51\] O *L 0.000e+00 *S 1.139e-01 1.529e-01 
o_ADS1292_DATA_OUT\[50\] O *L 0.000e+00 *S 1.139e-01 1.529e-01 
o_ADS1292_DATA_OUT\[49\] O *L 0.000e+00 *S 1.139e-01 1.529e-01 
o_ADS1292_DATA_OUT\[48\] O *L 0.000e+00 *S 1.139e-01 1.529e-01 
o_ADS1292_DATA_OUT\[47\] O *L 0.000e+00 *S 1.139e-01 1.529e-01 
o_ADS1292_DATA_OUT\[46\] O *L 0.000e+00 *S 1.139e-01 1.529e-01 
o_ADS1292_DATA_OUT\[45\] O *L 0.000e+00 *S 1.139e-01 1.529e-01 
o_ADS1292_DATA_OUT\[44\] O *L 0.000e+00 *S 1.139e-01 1.529e-01 
o_ADS1292_DATA_OUT\[43\] O *L 0.000e+00 *S 1.139e-01 1.529e-01 
o_ADS1292_DATA_OUT\[42\] O *L 0.000e+00 *S 1.139e-01 1.529e-01 
o_ADS1292_DATA_OUT\[41\] O *L 0.000e+00 *S 1.139e-01 1.529e-01 
o_ADS1292_DATA_OUT\[40\] O *L 0.000e+00 *S 1.139e-01 1.529e-01 
o_ADS1292_DATA_OUT\[39\] O *L 0.000e+00 *S 1.139e-01 1.529e-01 
o_ADS1292_DATA_OUT\[38\] O *L 0.000e+00 *S 1.139e-01 1.529e-01 
o_ADS1292_DATA_OUT\[37\] O *L 0.000e+00 *S 1.139e-01 1.529e-01 
o_ADS1292_DATA_OUT\[36\] O *L 0.000e+00 *S 1.139e-01 1.529e-01 
o_ADS1292_DATA_OUT\[35\] O *L 0.000e+00 *S 1.139e-01 1.529e-01 
o_ADS1292_DATA_OUT\[34\] O *L 0.000e+00 *S 1.139e-01 1.529e-01 
o_ADS1292_DATA_OUT\[33\] O *L 0.000e+00 *S 1.139e-01 1.529e-01 
o_ADS1292_DATA_OUT\[32\] O *L 0.000e+00 *S 1.139e-01 1.529e-01 
o_ADS1292_DATA_OUT\[31\] O *L 0.000e+00 *S 1.139e-01 1.529e-01 
o_ADS1292_DATA_OUT\[30\] O *L 0.000e+00 *S 1.139e-01 1.529e-01 
o_ADS1292_DATA_OUT\[29\] O *L 0.000e+00 *S 1.139e-01 1.529e-01 
o_ADS1292_DATA_OUT\[28\] O *L 0.000e+00 *S 1.139e-01 1.529e-01 
o_ADS1292_DATA_OUT\[27\] O *L 0.000e+00 *S 1.139e-01 1.529e-01 
o_ADS1292_DATA_OUT\[26\] O *L 0.000e+00 *S 1.139e-01 1.529e-01 
o_ADS1292_DATA_OUT\[25\] O *L 0.000e+00 *S 1.139e-01 1.529e-01 
o_ADS1292_DATA_OUT\[24\] O *L 0.000e+00 *S 1.139e-01 1.529e-01 
o_ADS1292_DATA_OUT\[23\] O *L 0.000e+00 *S 1.139e-01 1.529e-01 
o_ADS1292_DATA_OUT\[22\] O *L 0.000e+00 *S 1.139e-01 1.529e-01 
o_ADS1292_DATA_OUT\[21\] O *L 0.000e+00 *S 1.139e-01 1.529e-01 
o_ADS1292_DATA_OUT\[20\] O *L 0.000e+00 *S 1.139e-01 1.529e-01 
o_ADS1292_DATA_OUT\[19\] O *L 0.000e+00 *S 1.139e-01 1.529e-01 
o_ADS1292_DATA_OUT\[18\] O *L 0.000e+00 *S 1.139e-01 1.529e-01 
o_ADS1292_DATA_OUT\[17\] O *L 0.000e+00 *S 1.139e-01 1.529e-01 
o_ADS1292_DATA_OUT\[16\] O *L 0.000e+00 *S 1.139e-01 1.529e-01 
o_ADS1292_DATA_OUT\[15\] O *L 0.000e+00 *S 1.139e-01 1.529e-01 
o_ADS1292_DATA_OUT\[14\] O *L 0.000e+00 *S 1.139e-01 1.529e-01 
o_ADS1292_DATA_OUT\[13\] O *L 0.000e+00 *S 1.139e-01 1.529e-01 
o_ADS1292_DATA_OUT\[12\] O *L 0.000e+00 *S 1.139e-01 1.529e-01 
o_ADS1292_DATA_OUT\[11\] O *L 0.000e+00 *S 1.139e-01 1.529e-01 
o_ADS1292_DATA_OUT\[10\] O *L 0.000e+00 *S 1.139e-01 1.529e-01 
o_ADS1292_DATA_OUT\[9\] O *L 0.000e+00 *S 1.139e-01 1.529e-01 
o_ADS1292_DATA_OUT\[8\] O *L 0.000e+00 *S 1.139e-01 1.529e-01 
o_ADS1292_DATA_OUT\[7\] O *L 0.000e+00 *S 1.153e-01 1.543e-01 
o_ADS1292_DATA_OUT\[6\] O *L 0.000e+00 *S 1.153e-01 1.543e-01 
o_ADS1292_DATA_OUT\[5\] O *L 0.000e+00 *S 1.153e-01 1.543e-01 
o_ADS1292_DATA_OUT\[4\] O *L 0.000e+00 *S 1.153e-01 1.543e-01 
o_ADS1292_DATA_OUT\[3\] O *L 0.000e+00 *S 1.153e-01 1.543e-01 
o_ADS1292_DATA_OUT\[2\] O *L 0.000e+00 *S 1.153e-01 1.543e-01 
o_ADS1292_DATA_OUT\[1\] O *L 0.000e+00 *S 1.153e-01 1.543e-01 
o_ADS1292_DATA_OUT\[0\] O *L 0.000e+00 *S 1.153e-01 1.543e-01 
i_ADS1292_CONTROL\[2\] I *L 0.000e+00 *S 0.000e+00 0.000e+00 
i_ADS1292_CONTROL\[1\] I *L 0.000e+00 *S 0.000e+00 0.000e+00 
i_ADS1292_CONTROL\[0\] I *L 0.000e+00 *S 0.000e+00 0.000e+00 
i_ADS1292_COMMAND\[7\] I *L 0.000e+00 *S 0.000e+00 0.000e+00 
i_ADS1292_COMMAND\[6\] I *L 0.000e+00 *S 0.000e+00 0.000e+00 
i_ADS1292_COMMAND\[5\] I *L 0.000e+00 *S 0.000e+00 0.000e+00 
i_ADS1292_COMMAND\[4\] I *L 0.000e+00 *S 0.000e+00 0.000e+00 
i_ADS1292_COMMAND\[3\] I *L 0.000e+00 *S 0.000e+00 0.000e+00 
i_ADS1292_COMMAND\[2\] I *L 0.000e+00 *S 0.000e+00 0.000e+00 
i_ADS1292_COMMAND\[1\] I *L 0.000e+00 *S 0.000e+00 0.000e+00 
i_ADS1292_COMMAND\[0\] I *L 0.000e+00 *S 0.000e+00 0.000e+00 
i_ADS1292_REG_ADDR\[7\] I *L 0.000e+00 *S 0.000e+00 0.000e+00 
i_ADS1292_REG_ADDR\[6\] I *L 0.000e+00 *S 0.000e+00 0.000e+00 
i_ADS1292_REG_ADDR\[5\] I *L 0.000e+00 *S 0.000e+00 0.000e+00 
i_ADS1292_REG_ADDR\[4\] I *L 0.000e+00 *S 0.000e+00 0.000e+00 
i_ADS1292_REG_ADDR\[3\] I *L 0.000e+00 *S 0.000e+00 0.000e+00 
i_ADS1292_REG_ADDR\[2\] I *L 0.000e+00 *S 0.000e+00 0.000e+00 
i_ADS1292_REG_ADDR\[1\] I *L 0.000e+00 *S 0.000e+00 0.000e+00 
i_ADS1292_REG_ADDR\[0\] I *L 0.000e+00 *S 0.000e+00 0.000e+00 
i_ADS1292_DATA_IN\[7\] I *L 0.000e+00 *S 0.000e+00 0.000e+00 
i_ADS1292_DATA_IN\[6\] I *L 0.000e+00 *S 0.000e+00 0.000e+00 
i_ADS1292_DATA_IN\[5\] I *L 0.000e+00 *S 0.000e+00 0.000e+00 
i_ADS1292_DATA_IN\[4\] I *L 0.000e+00 *S 0.000e+00 0.000e+00 
i_ADS1292_DATA_IN\[3\] I *L 0.000e+00 *S 0.000e+00 0.000e+00 
i_ADS1292_DATA_IN\[2\] I *L 0.000e+00 *S 0.000e+00 0.000e+00 
i_ADS1292_DATA_IN\[1\] I *L 0.000e+00 *S 0.000e+00 0.000e+00 
i_ADS1292_DATA_IN\[0\] I *L 0.000e+00 *S 0.000e+00 0.000e+00 
o_ADS1292_INIT_SET O *L 0.000e+00 *S 6.972e-02 1.016e-01 
o_ADS1292_DATA_VALID O *L 0.000e+00 *S 7.421e-02 1.073e-01 
o_ADS1292_BUSY O *L 0.000e+00 *S 7.906e-02 1.134e-01 
o_SPI_CLK O *L 0.000e+00 *S 3.493e-02 3.549e-02 
i_SPI_MISO I *L 0.000e+00 *S 0.000e+00 0.000e+00 
o_SPI_MOSI O *L 0.000e+00 *S 6.972e-02 1.016e-01 
i_ADS1292_DRDY I *L 0.000e+00 *S 0.000e+00 0.000e+00 
o_ADS1292_RESET O *L 0.000e+00 *S 3.863e-02 3.049e-02 
o_ADS1292_START O *L 0.000e+00 *S 7.906e-02 1.134e-01 
o_SPI_CSN O *L 0.000e+00 *S 7.518e-02 6.056e-02 
i_CLK I *L 0.000e+00 *S 0.000e+00 0.000e+00 
i_RSTN I *L 0.000e+00 *S 0.000e+00 0.000e+00 

*R_NET o_ADS1292_DATA_OUT\[71\] 6.980e-03
*DRIVER o_ADS1292_DATA_OUT_reg_71_:Q
*CELL fd2qd1_hd
*C2_R1_C1 3.490e-03 9.100e-03 3.490e-03 
*LOADS
*RC U692:C 6.352e-05
*RC o_ADS1292_DATA_OUT\[71\] 6.352e-05
*END

*R_NET o_ADS1292_DATA_OUT\[70\] 6.980e-03
*DRIVER o_ADS1292_DATA_OUT_reg_70_:Q
*CELL fd2qd1_hd
*C2_R1_C1 3.490e-03 9.100e-03 3.490e-03 
*LOADS
*RC U677:C 6.352e-05
*RC o_ADS1292_DATA_OUT\[70\] 6.352e-05
*END

*R_NET o_ADS1292_DATA_OUT\[69\] 6.980e-03
*DRIVER o_ADS1292_DATA_OUT_reg_69_:Q
*CELL fd2qd1_hd
*C2_R1_C1 3.490e-03 9.100e-03 3.490e-03 
*LOADS
*RC U672:C 6.352e-05
*RC o_ADS1292_DATA_OUT\[69\] 6.352e-05
*END

*R_NET o_ADS1292_DATA_OUT\[68\] 6.980e-03
*DRIVER o_ADS1292_DATA_OUT_reg_68_:Q
*CELL fd2qd1_hd
*C2_R1_C1 3.490e-03 9.100e-03 3.490e-03 
*LOADS
*RC U691:C 6.352e-05
*RC o_ADS1292_DATA_OUT\[68\] 6.352e-05
*END

*R_NET o_ADS1292_DATA_OUT\[67\] 6.980e-03
*DRIVER o_ADS1292_DATA_OUT_reg_67_:Q
*CELL fd2qd1_hd
*C2_R1_C1 3.490e-03 9.100e-03 3.490e-03 
*LOADS
*RC U654:C 6.352e-05
*RC o_ADS1292_DATA_OUT\[67\] 6.352e-05
*END

*R_NET o_ADS1292_DATA_OUT\[66\] 6.980e-03
*DRIVER o_ADS1292_DATA_OUT_reg_66_:Q
*CELL fd2qd1_hd
*C2_R1_C1 3.490e-03 9.100e-03 3.490e-03 
*LOADS
*RC U655:C 6.352e-05
*RC o_ADS1292_DATA_OUT\[66\] 6.352e-05
*END

*R_NET o_ADS1292_DATA_OUT\[65\] 6.980e-03
*DRIVER o_ADS1292_DATA_OUT_reg_65_:Q
*CELL fd2qd1_hd
*C2_R1_C1 3.490e-03 9.100e-03 3.490e-03 
*LOADS
*RC U658:C 6.352e-05
*RC o_ADS1292_DATA_OUT\[65\] 6.352e-05
*END

*R_NET o_ADS1292_DATA_OUT\[64\] 6.980e-03
*DRIVER o_ADS1292_DATA_OUT_reg_64_:Q
*CELL fd2qd1_hd
*C2_R1_C1 3.490e-03 9.100e-03 3.490e-03 
*LOADS
*RC U665:C 6.352e-05
*RC o_ADS1292_DATA_OUT\[64\] 6.352e-05
*END

*R_NET o_ADS1292_DATA_OUT\[63\] 1.218e-02
*DRIVER o_ADS1292_DATA_OUT_reg_63_:Q
*CELL fd2qd1_hd
*C2_R1_C1 6.090e-03 9.460e-03 6.090e-03 
*LOADS
*RC U663:C 1.152e-04
*RC U692:B 1.152e-04
*RC o_ADS1292_DATA_OUT\[63\] 1.152e-04
*END

*R_NET o_ADS1292_DATA_OUT\[62\] 1.218e-02
*DRIVER o_ADS1292_DATA_OUT_reg_62_:Q
*CELL fd2qd1_hd
*C2_R1_C1 6.090e-03 9.460e-03 6.090e-03 
*LOADS
*RC U670:C 1.152e-04
*RC U677:B 1.152e-04
*RC o_ADS1292_DATA_OUT\[62\] 1.152e-04
*END

*R_NET o_ADS1292_DATA_OUT\[61\] 1.218e-02
*DRIVER o_ADS1292_DATA_OUT_reg_61_:Q
*CELL fd2qd1_hd
*C2_R1_C1 6.090e-03 9.460e-03 6.090e-03 
*LOADS
*RC U672:B 1.152e-04
*RC U685:C 1.152e-04
*RC o_ADS1292_DATA_OUT\[61\] 1.152e-04
*END

*R_NET o_ADS1292_DATA_OUT\[60\] 1.218e-02
*DRIVER o_ADS1292_DATA_OUT_reg_60_:Q
*CELL fd2qd1_hd
*C2_R1_C1 6.090e-03 9.460e-03 6.090e-03 
*LOADS
*RC U657:C 1.152e-04
*RC U691:B 1.152e-04
*RC o_ADS1292_DATA_OUT\[60\] 1.152e-04
*END

*R_NET o_ADS1292_DATA_OUT\[59\] 1.218e-02
*DRIVER o_ADS1292_DATA_OUT_reg_59_:Q
*CELL fd2qd1_hd
*C2_R1_C1 6.090e-03 9.460e-03 6.090e-03 
*LOADS
*RC U654:B 1.152e-04
*RC U697:C 1.152e-04
*RC o_ADS1292_DATA_OUT\[59\] 1.152e-04
*END

*R_NET o_ADS1292_DATA_OUT\[58\] 1.218e-02
*DRIVER o_ADS1292_DATA_OUT_reg_58_:Q
*CELL fd2qd1_hd
*C2_R1_C1 6.090e-03 9.460e-03 6.090e-03 
*LOADS
*RC U655:B 1.152e-04
*RC U711:C 1.152e-04
*RC o_ADS1292_DATA_OUT\[58\] 1.152e-04
*END

*R_NET o_ADS1292_DATA_OUT\[57\] 1.218e-02
*DRIVER o_ADS1292_DATA_OUT_reg_57_:Q
*CELL fd2qd1_hd
*C2_R1_C1 6.090e-03 9.460e-03 6.090e-03 
*LOADS
*RC U658:B 1.152e-04
*RC U698:C 1.152e-04
*RC o_ADS1292_DATA_OUT\[57\] 1.152e-04
*END

*R_NET o_ADS1292_DATA_OUT\[56\] 1.218e-02
*DRIVER o_ADS1292_DATA_OUT_reg_56_:Q
*CELL fd2qd1_hd
*C2_R1_C1 6.090e-03 9.460e-03 6.090e-03 
*LOADS
*RC U665:B 1.152e-04
*RC U710:C 1.152e-04
*RC o_ADS1292_DATA_OUT\[56\] 1.152e-04
*END

*R_NET o_ADS1292_DATA_OUT\[55\] 1.218e-02
*DRIVER o_ADS1292_DATA_OUT_reg_55_:Q
*CELL fd2qd1_hd
*C2_R1_C1 6.090e-03 9.460e-03 6.090e-03 
*LOADS
*RC U659:C 1.152e-04
*RC U663:B 1.152e-04
*RC o_ADS1292_DATA_OUT\[55\] 1.152e-04
*END

*R_NET o_ADS1292_DATA_OUT\[54\] 1.218e-02
*DRIVER o_ADS1292_DATA_OUT_reg_54_:Q
*CELL fd2qd1_hd
*C2_R1_C1 6.090e-03 9.460e-03 6.090e-03 
*LOADS
*RC U670:B 1.152e-04
*RC U673:C 1.152e-04
*RC o_ADS1292_DATA_OUT\[54\] 1.152e-04
*END

*R_NET o_ADS1292_DATA_OUT\[53\] 1.218e-02
*DRIVER o_ADS1292_DATA_OUT_reg_53_:Q
*CELL fd2qd1_hd
*C2_R1_C1 6.090e-03 9.460e-03 6.090e-03 
*LOADS
*RC U679:C 1.152e-04
*RC U685:B 1.152e-04
*RC o_ADS1292_DATA_OUT\[53\] 1.152e-04
*END

*R_NET o_ADS1292_DATA_OUT\[52\] 1.218e-02
*DRIVER o_ADS1292_DATA_OUT_reg_52_:Q
*CELL fd2qd1_hd
*C2_R1_C1 6.090e-03 9.460e-03 6.090e-03 
*LOADS
*RC U657:B 1.152e-04
*RC U662:C 1.152e-04
*RC o_ADS1292_DATA_OUT\[52\] 1.152e-04
*END

*R_NET o_ADS1292_DATA_OUT\[51\] 1.218e-02
*DRIVER o_ADS1292_DATA_OUT_reg_51_:Q
*CELL fd2qd1_hd
*C2_R1_C1 6.090e-03 9.460e-03 6.090e-03 
*LOADS
*RC U695:C 1.152e-04
*RC U697:B 1.152e-04
*RC o_ADS1292_DATA_OUT\[51\] 1.152e-04
*END

*R_NET o_ADS1292_DATA_OUT\[50\] 1.218e-02
*DRIVER o_ADS1292_DATA_OUT_reg_50_:Q
*CELL fd2qd1_hd
*C2_R1_C1 6.090e-03 9.460e-03 6.090e-03 
*LOADS
*RC U711:B 1.152e-04
*RC U717:C 1.152e-04
*RC o_ADS1292_DATA_OUT\[50\] 1.152e-04
*END

*R_NET o_ADS1292_DATA_OUT\[49\] 1.218e-02
*DRIVER o_ADS1292_DATA_OUT_reg_49_:Q
*CELL fd2qd1_hd
*C2_R1_C1 6.090e-03 9.460e-03 6.090e-03 
*LOADS
*RC U698:B 1.152e-04
*RC U703:C 1.152e-04
*RC o_ADS1292_DATA_OUT\[49\] 1.152e-04
*END

*R_NET o_ADS1292_DATA_OUT\[48\] 1.218e-02
*DRIVER o_ADS1292_DATA_OUT_reg_48_:Q
*CELL fd2qd1_hd
*C2_R1_C1 6.090e-03 9.460e-03 6.090e-03 
*LOADS
*RC U702:C 1.152e-04
*RC U710:B 1.152e-04
*RC o_ADS1292_DATA_OUT\[48\] 1.152e-04
*END

*R_NET o_ADS1292_DATA_OUT\[47\] 1.218e-02
*DRIVER o_ADS1292_DATA_OUT_reg_47_:Q
*CELL fd2qd1_hd
*C2_R1_C1 6.090e-03 9.460e-03 6.090e-03 
*LOADS
*RC U659:B 1.152e-04
*RC U678:C 1.152e-04
*RC o_ADS1292_DATA_OUT\[47\] 1.152e-04
*END

*R_NET o_ADS1292_DATA_OUT\[46\] 1.218e-02
*DRIVER o_ADS1292_DATA_OUT_reg_46_:Q
*CELL fd2qd1_hd
*C2_R1_C1 6.090e-03 9.460e-03 6.090e-03 
*LOADS
*RC U673:B 1.152e-04
*RC U676:C 1.152e-04
*RC o_ADS1292_DATA_OUT\[46\] 1.152e-04
*END

*R_NET o_ADS1292_DATA_OUT\[45\] 1.218e-02
*DRIVER o_ADS1292_DATA_OUT_reg_45_:Q
*CELL fd2qd1_hd
*C2_R1_C1 6.090e-03 9.460e-03 6.090e-03 
*LOADS
*RC U674:C 1.152e-04
*RC U679:B 1.152e-04
*RC o_ADS1292_DATA_OUT\[45\] 1.152e-04
*END

*R_NET o_ADS1292_DATA_OUT\[44\] 1.218e-02
*DRIVER o_ADS1292_DATA_OUT_reg_44_:Q
*CELL fd2qd1_hd
*C2_R1_C1 6.090e-03 9.460e-03 6.090e-03 
*LOADS
*RC U662:B 1.152e-04
*RC U669:C 1.152e-04
*RC o_ADS1292_DATA_OUT\[44\] 1.152e-04
*END

*R_NET o_ADS1292_DATA_OUT\[43\] 1.218e-02
*DRIVER o_ADS1292_DATA_OUT_reg_43_:Q
*CELL fd2qd1_hd
*C2_R1_C1 6.090e-03 9.460e-03 6.090e-03 
*LOADS
*RC U695:B 1.152e-04
*RC U706:C 1.152e-04
*RC o_ADS1292_DATA_OUT\[43\] 1.152e-04
*END

*R_NET o_ADS1292_DATA_OUT\[42\] 1.218e-02
*DRIVER o_ADS1292_DATA_OUT_reg_42_:Q
*CELL fd2qd1_hd
*C2_R1_C1 6.090e-03 9.460e-03 6.090e-03 
*LOADS
*RC U700:C 1.152e-04
*RC U717:B 1.152e-04
*RC o_ADS1292_DATA_OUT\[42\] 1.152e-04
*END

*R_NET o_ADS1292_DATA_OUT\[41\] 1.218e-02
*DRIVER o_ADS1292_DATA_OUT_reg_41_:Q
*CELL fd2qd1_hd
*C2_R1_C1 6.090e-03 9.460e-03 6.090e-03 
*LOADS
*RC U701:C 1.152e-04
*RC U703:B 1.152e-04
*RC o_ADS1292_DATA_OUT\[41\] 1.152e-04
*END

*R_NET o_ADS1292_DATA_OUT\[40\] 1.218e-02
*DRIVER o_ADS1292_DATA_OUT_reg_40_:Q
*CELL fd2qd1_hd
*C2_R1_C1 6.090e-03 9.460e-03 6.090e-03 
*LOADS
*RC U696:C 1.152e-04
*RC U702:B 1.152e-04
*RC o_ADS1292_DATA_OUT\[40\] 1.152e-04
*END

*R_NET o_ADS1292_DATA_OUT\[39\] 1.218e-02
*DRIVER o_ADS1292_DATA_OUT_reg_39_:Q
*CELL fd2qd1_hd
*C2_R1_C1 6.090e-03 9.460e-03 6.090e-03 
*LOADS
*RC U656:C 1.152e-04
*RC U678:B 1.152e-04
*RC o_ADS1292_DATA_OUT\[39\] 1.152e-04
*END

*R_NET o_ADS1292_DATA_OUT\[38\] 1.218e-02
*DRIVER o_ADS1292_DATA_OUT_reg_38_:Q
*CELL fd2qd1_hd
*C2_R1_C1 6.090e-03 9.460e-03 6.090e-03 
*LOADS
*RC U676:B 1.152e-04
*RC U683:C 1.152e-04
*RC o_ADS1292_DATA_OUT\[38\] 1.152e-04
*END

*R_NET o_ADS1292_DATA_OUT\[37\] 1.218e-02
*DRIVER o_ADS1292_DATA_OUT_reg_37_:Q
*CELL fd2qd1_hd
*C2_R1_C1 6.090e-03 9.460e-03 6.090e-03 
*LOADS
*RC U671:C 1.152e-04
*RC U674:B 1.152e-04
*RC o_ADS1292_DATA_OUT\[37\] 1.152e-04
*END

*R_NET o_ADS1292_DATA_OUT\[36\] 1.218e-02
*DRIVER o_ADS1292_DATA_OUT_reg_36_:Q
*CELL fd2qd1_hd
*C2_R1_C1 6.090e-03 9.460e-03 6.090e-03 
*LOADS
*RC U669:B 1.152e-04
*RC U681:C 1.152e-04
*RC o_ADS1292_DATA_OUT\[36\] 1.152e-04
*END

*R_NET o_ADS1292_DATA_OUT\[35\] 1.218e-02
*DRIVER o_ADS1292_DATA_OUT_reg_35_:Q
*CELL fd2qd1_hd
*C2_R1_C1 6.090e-03 9.460e-03 6.090e-03 
*LOADS
*RC U706:B 1.152e-04
*RC U709:C 1.152e-04
*RC o_ADS1292_DATA_OUT\[35\] 1.152e-04
*END

*R_NET o_ADS1292_DATA_OUT\[34\] 1.218e-02
*DRIVER o_ADS1292_DATA_OUT_reg_34_:Q
*CELL fd2qd1_hd
*C2_R1_C1 6.090e-03 9.460e-03 6.090e-03 
*LOADS
*RC U700:B 1.152e-04
*RC U704:C 1.152e-04
*RC o_ADS1292_DATA_OUT\[34\] 1.152e-04
*END

*R_NET o_ADS1292_DATA_OUT\[33\] 1.218e-02
*DRIVER o_ADS1292_DATA_OUT_reg_33_:Q
*CELL fd2qd1_hd
*C2_R1_C1 6.090e-03 9.460e-03 6.090e-03 
*LOADS
*RC U701:B 1.152e-04
*RC U712:C 1.152e-04
*RC o_ADS1292_DATA_OUT\[33\] 1.152e-04
*END

*R_NET o_ADS1292_DATA_OUT\[32\] 1.218e-02
*DRIVER o_ADS1292_DATA_OUT_reg_32_:Q
*CELL fd2qd1_hd
*C2_R1_C1 6.090e-03 9.460e-03 6.090e-03 
*LOADS
*RC U687:C 1.152e-04
*RC U696:B 1.152e-04
*RC o_ADS1292_DATA_OUT\[32\] 1.152e-04
*END

*R_NET o_ADS1292_DATA_OUT\[31\] 1.218e-02
*DRIVER o_ADS1292_DATA_OUT_reg_31_:Q
*CELL fd2qd1_hd
*C2_R1_C1 6.090e-03 9.460e-03 6.090e-03 
*LOADS
*RC U656:B 1.152e-04
*RC U666:C 1.152e-04
*RC o_ADS1292_DATA_OUT\[31\] 1.152e-04
*END

*R_NET o_ADS1292_DATA_OUT\[30\] 1.218e-02
*DRIVER o_ADS1292_DATA_OUT_reg_30_:Q
*CELL fd2qd1_hd
*C2_R1_C1 6.090e-03 9.460e-03 6.090e-03 
*LOADS
*RC U683:B 1.152e-04
*RC U688:C 1.152e-04
*RC o_ADS1292_DATA_OUT\[30\] 1.152e-04
*END

*R_NET o_ADS1292_DATA_OUT\[29\] 1.218e-02
*DRIVER o_ADS1292_DATA_OUT_reg_29_:Q
*CELL fd2qd1_hd
*C2_R1_C1 6.090e-03 9.460e-03 6.090e-03 
*LOADS
*RC U660:C 1.152e-04
*RC U671:B 1.152e-04
*RC o_ADS1292_DATA_OUT\[29\] 1.152e-04
*END

*R_NET o_ADS1292_DATA_OUT\[28\] 1.218e-02
*DRIVER o_ADS1292_DATA_OUT_reg_28_:Q
*CELL fd2qd1_hd
*C2_R1_C1 6.090e-03 9.460e-03 6.090e-03 
*LOADS
*RC U681:B 1.152e-04
*RC U684:C 1.152e-04
*RC o_ADS1292_DATA_OUT\[28\] 1.152e-04
*END

*R_NET o_ADS1292_DATA_OUT\[27\] 1.218e-02
*DRIVER o_ADS1292_DATA_OUT_reg_27_:Q
*CELL fd2qd1_hd
*C2_R1_C1 6.090e-03 9.460e-03 6.090e-03 
*LOADS
*RC U699:C 1.152e-04
*RC U709:B 1.152e-04
*RC o_ADS1292_DATA_OUT\[27\] 1.152e-04
*END

*R_NET o_ADS1292_DATA_OUT\[26\] 1.218e-02
*DRIVER o_ADS1292_DATA_OUT_reg_26_:Q
*CELL fd2qd1_hd
*C2_R1_C1 6.090e-03 9.460e-03 6.090e-03 
*LOADS
*RC U704:B 1.152e-04
*RC U705:C 1.152e-04
*RC o_ADS1292_DATA_OUT\[26\] 1.152e-04
*END

*R_NET o_ADS1292_DATA_OUT\[25\] 1.218e-02
*DRIVER o_ADS1292_DATA_OUT_reg_25_:Q
*CELL fd2qd1_hd
*C2_R1_C1 6.090e-03 9.460e-03 6.090e-03 
*LOADS
*RC U712:B 1.152e-04
*RC U714:C 1.152e-04
*RC o_ADS1292_DATA_OUT\[25\] 1.152e-04
*END

*R_NET o_ADS1292_DATA_OUT\[24\] 1.218e-02
*DRIVER o_ADS1292_DATA_OUT_reg_24_:Q
*CELL fd2qd1_hd
*C2_R1_C1 6.090e-03 9.460e-03 6.090e-03 
*LOADS
*RC U682:C 1.152e-04
*RC U687:B 1.152e-04
*RC o_ADS1292_DATA_OUT\[24\] 1.152e-04
*END

*R_NET o_ADS1292_DATA_OUT\[23\] 1.218e-02
*DRIVER o_ADS1292_DATA_OUT_reg_23_:Q
*CELL fd2qd1_hd
*C2_R1_C1 6.090e-03 9.460e-03 6.090e-03 
*LOADS
*RC U666:B 1.152e-04
*RC U675:C 1.152e-04
*RC o_ADS1292_DATA_OUT\[23\] 1.152e-04
*END

*R_NET o_ADS1292_DATA_OUT\[22\] 1.218e-02
*DRIVER o_ADS1292_DATA_OUT_reg_22_:Q
*CELL fd2qd1_hd
*C2_R1_C1 6.090e-03 9.460e-03 6.090e-03 
*LOADS
*RC U688:B 1.152e-04
*RC U693:C 1.152e-04
*RC o_ADS1292_DATA_OUT\[22\] 1.152e-04
*END

*R_NET o_ADS1292_DATA_OUT\[21\] 1.218e-02
*DRIVER o_ADS1292_DATA_OUT_reg_21_:Q
*CELL fd2qd1_hd
*C2_R1_C1 6.090e-03 9.460e-03 6.090e-03 
*LOADS
*RC U660:B 1.152e-04
*RC U664:C 1.152e-04
*RC o_ADS1292_DATA_OUT\[21\] 1.152e-04
*END

*R_NET o_ADS1292_DATA_OUT\[20\] 1.218e-02
*DRIVER o_ADS1292_DATA_OUT_reg_20_:Q
*CELL fd2qd1_hd
*C2_R1_C1 6.090e-03 9.460e-03 6.090e-03 
*LOADS
*RC U684:B 1.152e-04
*RC U686:C 1.152e-04
*RC o_ADS1292_DATA_OUT\[20\] 1.152e-04
*END

*R_NET o_ADS1292_DATA_OUT\[19\] 1.218e-02
*DRIVER o_ADS1292_DATA_OUT_reg_19_:Q
*CELL fd2qd1_hd
*C2_R1_C1 6.090e-03 9.460e-03 6.090e-03 
*LOADS
*RC U699:B 1.152e-04
*RC U715:C 1.152e-04
*RC o_ADS1292_DATA_OUT\[19\] 1.152e-04
*END

*R_NET o_ADS1292_DATA_OUT\[18\] 1.218e-02
*DRIVER o_ADS1292_DATA_OUT_reg_18_:Q
*CELL fd2qd1_hd
*C2_R1_C1 6.090e-03 9.460e-03 6.090e-03 
*LOADS
*RC U694:C 1.152e-04
*RC U705:B 1.152e-04
*RC o_ADS1292_DATA_OUT\[18\] 1.152e-04
*END

*R_NET o_ADS1292_DATA_OUT\[17\] 1.218e-02
*DRIVER o_ADS1292_DATA_OUT_reg_17_:Q
*CELL fd2qd1_hd
*C2_R1_C1 6.090e-03 9.460e-03 6.090e-03 
*LOADS
*RC U713:C 1.152e-04
*RC U714:B 1.152e-04
*RC o_ADS1292_DATA_OUT\[17\] 1.152e-04
*END

*R_NET o_ADS1292_DATA_OUT\[16\] 1.218e-02
*DRIVER o_ADS1292_DATA_OUT_reg_16_:Q
*CELL fd2qd1_hd
*C2_R1_C1 6.090e-03 9.460e-03 6.090e-03 
*LOADS
*RC U680:C 1.152e-04
*RC U682:B 1.152e-04
*RC o_ADS1292_DATA_OUT\[16\] 1.152e-04
*END

*R_NET o_ADS1292_DATA_OUT\[15\] 1.218e-02
*DRIVER o_ADS1292_DATA_OUT_reg_15_:Q
*CELL fd2qd1_hd
*C2_R1_C1 6.090e-03 9.460e-03 6.090e-03 
*LOADS
*RC U667:C 1.152e-04
*RC U675:B 1.152e-04
*RC o_ADS1292_DATA_OUT\[15\] 1.152e-04
*END

*R_NET o_ADS1292_DATA_OUT\[14\] 1.218e-02
*DRIVER o_ADS1292_DATA_OUT_reg_14_:Q
*CELL fd2qd1_hd
*C2_R1_C1 6.090e-03 9.460e-03 6.090e-03 
*LOADS
*RC U690:C 1.152e-04
*RC U693:B 1.152e-04
*RC o_ADS1292_DATA_OUT\[14\] 1.152e-04
*END

*R_NET o_ADS1292_DATA_OUT\[13\] 1.218e-02
*DRIVER o_ADS1292_DATA_OUT_reg_13_:Q
*CELL fd2qd1_hd
*C2_R1_C1 6.090e-03 9.460e-03 6.090e-03 
*LOADS
*RC U661:C 1.152e-04
*RC U664:B 1.152e-04
*RC o_ADS1292_DATA_OUT\[13\] 1.152e-04
*END

*R_NET o_ADS1292_DATA_OUT\[12\] 1.218e-02
*DRIVER o_ADS1292_DATA_OUT_reg_12_:Q
*CELL fd2qd1_hd
*C2_R1_C1 6.090e-03 9.460e-03 6.090e-03 
*LOADS
*RC U686:B 1.152e-04
*RC U689:C 1.152e-04
*RC o_ADS1292_DATA_OUT\[12\] 1.152e-04
*END

*R_NET o_ADS1292_DATA_OUT\[11\] 1.218e-02
*DRIVER o_ADS1292_DATA_OUT_reg_11_:Q
*CELL fd2qd1_hd
*C2_R1_C1 6.090e-03 9.460e-03 6.090e-03 
*LOADS
*RC U715:B 1.152e-04
*RC U716:C 1.152e-04
*RC o_ADS1292_DATA_OUT\[11\] 1.152e-04
*END

*R_NET o_ADS1292_DATA_OUT\[10\] 1.218e-02
*DRIVER o_ADS1292_DATA_OUT_reg_10_:Q
*CELL fd2qd1_hd
*C2_R1_C1 6.090e-03 9.460e-03 6.090e-03 
*LOADS
*RC U694:B 1.152e-04
*RC U707:C 1.152e-04
*RC o_ADS1292_DATA_OUT\[10\] 1.152e-04
*END

*R_NET o_ADS1292_DATA_OUT\[9\] 1.218e-02
*DRIVER o_ADS1292_DATA_OUT_reg_9_:Q
*CELL fd2qd1_hd
*C2_R1_C1 6.090e-03 9.460e-03 6.090e-03 
*LOADS
*RC U708:C 1.152e-04
*RC U713:B 1.152e-04
*RC o_ADS1292_DATA_OUT\[9\] 1.152e-04
*END

*R_NET o_ADS1292_DATA_OUT\[8\] 1.218e-02
*DRIVER o_ADS1292_DATA_OUT_reg_8_:Q
*CELL fd2qd1_hd
*C2_R1_C1 6.090e-03 9.460e-03 6.090e-03 
*LOADS
*RC U668:C 1.152e-04
*RC U680:B 1.152e-04
*RC o_ADS1292_DATA_OUT\[8\] 1.152e-04
*END

*R_NET o_ADS1292_DATA_OUT\[7\] 1.235e-02
*DRIVER o_ADS1292_DATA_OUT_reg_7_:Q
*CELL fd2qd1_hd
*C2_R1_C1 6.175e-03 9.460e-03 6.175e-03 
*LOADS
*RC U640:B 1.168e-04
*RC U667:B 1.168e-04
*RC o_ADS1292_DATA_OUT\[7\] 1.168e-04
*END

*R_NET o_ADS1292_DATA_OUT\[6\] 1.235e-02
*DRIVER o_ADS1292_DATA_OUT_reg_6_:Q
*CELL fd2qd1_hd
*C2_R1_C1 6.175e-03 9.460e-03 6.175e-03 
*LOADS
*RC U638:B 1.168e-04
*RC U690:B 1.168e-04
*RC o_ADS1292_DATA_OUT\[6\] 1.168e-04
*END

*R_NET o_ADS1292_DATA_OUT\[5\] 1.235e-02
*DRIVER o_ADS1292_DATA_OUT_reg_5_:Q
*CELL fd2qd1_hd
*C2_R1_C1 6.175e-03 9.460e-03 6.175e-03 
*LOADS
*RC U639:B 1.168e-04
*RC U661:B 1.168e-04
*RC o_ADS1292_DATA_OUT\[5\] 1.168e-04
*END

*R_NET o_ADS1292_DATA_OUT\[4\] 1.235e-02
*DRIVER o_ADS1292_DATA_OUT_reg_4_:Q
*CELL fd2qd1_hd
*C2_R1_C1 6.175e-03 9.460e-03 6.175e-03 
*LOADS
*RC U637:B 1.168e-04
*RC U689:B 1.168e-04
*RC o_ADS1292_DATA_OUT\[4\] 1.168e-04
*END

*R_NET o_ADS1292_DATA_OUT\[3\] 1.235e-02
*DRIVER o_ADS1292_DATA_OUT_reg_3_:Q
*CELL fd2qd1_hd
*C2_R1_C1 6.175e-03 9.460e-03 6.175e-03 
*LOADS
*RC U634:B 1.168e-04
*RC U716:B 1.168e-04
*RC o_ADS1292_DATA_OUT\[3\] 1.168e-04
*END

*R_NET o_ADS1292_DATA_OUT\[2\] 1.235e-02
*DRIVER o_ADS1292_DATA_OUT_reg_2_:Q
*CELL fd2qd1_hd
*C2_R1_C1 6.175e-03 9.460e-03 6.175e-03 
*LOADS
*RC U632:B 1.168e-04
*RC U707:B 1.168e-04
*RC o_ADS1292_DATA_OUT\[2\] 1.168e-04
*END

*R_NET o_ADS1292_DATA_OUT\[1\] 1.235e-02
*DRIVER o_ADS1292_DATA_OUT_reg_1_:Q
*CELL fd2qd1_hd
*C2_R1_C1 6.175e-03 9.460e-03 6.175e-03 
*LOADS
*RC U636:B 1.168e-04
*RC U708:B 1.168e-04
*RC o_ADS1292_DATA_OUT\[1\] 1.168e-04
*END

*R_NET o_ADS1292_DATA_OUT\[0\] 1.235e-02
*DRIVER o_ADS1292_DATA_OUT_reg_0_:Q
*CELL fd2qd1_hd
*C2_R1_C1 6.175e-03 9.460e-03 6.175e-03 
*LOADS
*RC U633:B 1.168e-04
*RC U668:B 1.168e-04
*RC o_ADS1292_DATA_OUT\[0\] 1.168e-04
*END

*R_NET i_ADS1292_CONTROL\[2\] 1.590e-02
*DRIVER i_ADS1292_CONTROL\[2\]
*CELL NULL
*C2_R1_C1 7.950e-03 9.460e-03 7.950e-03 
*LOADS
*RC U523:B 1.504e-04
*RC U730:A 1.504e-04
*RC U877:A 1.504e-04
*END

*R_NET i_ADS1292_CONTROL\[1\] 9.640e-03
*DRIVER i_ADS1292_CONTROL\[1\]
*CELL NULL
*C2_R1_C1 4.820e-03 9.100e-03 4.820e-03 
*LOADS
*RC U523:A 8.772e-05
*RC U727:A 8.772e-05
*END

*R_NET i_ADS1292_CONTROL\[0\] 1.501e-02
*DRIVER i_ADS1292_CONTROL\[0\]
*CELL NULL
*C2_R1_C1 7.505e-03 9.460e-03 7.505e-03 
*LOADS
*RC U586:C 1.420e-04
*RC U729:A 1.420e-04
*RC U923:A 1.420e-04
*END

*R_NET i_ADS1292_COMMAND\[7\] 4.670e-03
*DRIVER i_ADS1292_COMMAND\[7\]
*CELL NULL
*C2_R1_C1 2.335e-03 7.370e-03 2.335e-03 
*LOADS
*RC U629:D 3.442e-05
*END

*R_NET i_ADS1292_COMMAND\[6\] 4.670e-03
*DRIVER i_ADS1292_COMMAND\[6\]
*CELL NULL
*C2_R1_C1 2.335e-03 7.370e-03 2.335e-03 
*LOADS
*RC U628:D 3.442e-05
*END

*R_NET i_ADS1292_COMMAND\[5\] 4.670e-03
*DRIVER i_ADS1292_COMMAND\[5\]
*CELL NULL
*C2_R1_C1 2.335e-03 7.370e-03 2.335e-03 
*LOADS
*RC U631:D 3.442e-05
*END

*R_NET i_ADS1292_COMMAND\[4\] 5.910e-03
*DRIVER i_ADS1292_COMMAND\[4\]
*CELL NULL
*C2_R1_C1 2.955e-03 7.370e-03 2.955e-03 
*LOADS
*RC U985:B 4.356e-05
*END

*R_NET i_ADS1292_COMMAND\[3\] 5.750e-03
*DRIVER i_ADS1292_COMMAND\[3\]
*CELL NULL
*C2_R1_C1 2.875e-03 7.370e-03 2.875e-03 
*LOADS
*RC U983:A 4.238e-05
*END

*R_NET i_ADS1292_COMMAND\[2\] 5.750e-03
*DRIVER i_ADS1292_COMMAND\[2\]
*CELL NULL
*C2_R1_C1 2.875e-03 7.370e-03 2.875e-03 
*LOADS
*RC U982:A 4.238e-05
*END

*R_NET i_ADS1292_COMMAND\[1\] 4.670e-03
*DRIVER i_ADS1292_COMMAND\[1\]
*CELL NULL
*C2_R1_C1 2.335e-03 7.370e-03 2.335e-03 
*LOADS
*RC U630:D 3.442e-05
*END

*R_NET i_ADS1292_COMMAND\[0\] 6.210e-03
*DRIVER i_ADS1292_COMMAND\[0\]
*CELL NULL
*C2_R1_C1 3.105e-03 7.370e-03 3.105e-03 
*LOADS
*RC U981:B 4.577e-05
*END

*R_NET i_ADS1292_REG_ADDR\[4\] 4.780e-03
*DRIVER i_ADS1292_REG_ADDR\[4\]
*CELL NULL
*C2_R1_C1 2.390e-03 7.370e-03 2.390e-03 
*LOADS
*RC U644:B 3.523e-05
*END

*R_NET i_ADS1292_REG_ADDR\[3\] 4.780e-03
*DRIVER i_ADS1292_REG_ADDR\[3\]
*CELL NULL
*C2_R1_C1 2.390e-03 7.370e-03 2.390e-03 
*LOADS
*RC U642:B 3.523e-05
*END

*R_NET i_ADS1292_REG_ADDR\[2\] 4.780e-03
*DRIVER i_ADS1292_REG_ADDR\[2\]
*CELL NULL
*C2_R1_C1 2.390e-03 7.370e-03 2.390e-03 
*LOADS
*RC U641:B 3.523e-05
*END

*R_NET i_ADS1292_REG_ADDR\[1\] 4.780e-03
*DRIVER i_ADS1292_REG_ADDR\[1\]
*CELL NULL
*C2_R1_C1 2.390e-03 7.370e-03 2.390e-03 
*LOADS
*RC U643:B 3.523e-05
*END

*R_NET i_ADS1292_REG_ADDR\[0\] 4.780e-03
*DRIVER i_ADS1292_REG_ADDR\[0\]
*CELL NULL
*C2_R1_C1 2.390e-03 7.370e-03 2.390e-03 
*LOADS
*RC U649:B 3.523e-05
*END

*R_NET i_ADS1292_DATA_IN\[7\] 4.780e-03
*DRIVER i_ADS1292_DATA_IN\[7\]
*CELL NULL
*C2_R1_C1 2.390e-03 7.370e-03 2.390e-03 
*LOADS
*RC U650:B 3.523e-05
*END

*R_NET i_ADS1292_DATA_IN\[6\] 4.780e-03
*DRIVER i_ADS1292_DATA_IN\[6\]
*CELL NULL
*C2_R1_C1 2.390e-03 7.370e-03 2.390e-03 
*LOADS
*RC U651:B 3.523e-05
*END

*R_NET i_ADS1292_DATA_IN\[5\] 4.780e-03
*DRIVER i_ADS1292_DATA_IN\[5\]
*CELL NULL
*C2_R1_C1 2.390e-03 7.370e-03 2.390e-03 
*LOADS
*RC U652:B 3.523e-05
*END

*R_NET i_ADS1292_DATA_IN\[4\] 4.780e-03
*DRIVER i_ADS1292_DATA_IN\[4\]
*CELL NULL
*C2_R1_C1 2.390e-03 7.370e-03 2.390e-03 
*LOADS
*RC U653:B 3.523e-05
*END

*R_NET i_ADS1292_DATA_IN\[3\] 4.780e-03
*DRIVER i_ADS1292_DATA_IN\[3\]
*CELL NULL
*C2_R1_C1 2.390e-03 7.370e-03 2.390e-03 
*LOADS
*RC U648:B 3.523e-05
*END

*R_NET i_ADS1292_DATA_IN\[2\] 4.780e-03
*DRIVER i_ADS1292_DATA_IN\[2\]
*CELL NULL
*C2_R1_C1 2.390e-03 7.370e-03 2.390e-03 
*LOADS
*RC U647:B 3.523e-05
*END

*R_NET i_ADS1292_DATA_IN\[1\] 4.780e-03
*DRIVER i_ADS1292_DATA_IN\[1\]
*CELL NULL
*C2_R1_C1 2.390e-03 7.370e-03 2.390e-03 
*LOADS
*RC U646:B 3.523e-05
*END

*R_NET i_ADS1292_DATA_IN\[0\] 4.780e-03
*DRIVER i_ADS1292_DATA_IN\[0\]
*CELL NULL
*C2_R1_C1 2.390e-03 7.370e-03 2.390e-03 
*LOADS
*RC U645:B 3.523e-05
*END

*R_NET o_ADS1292_INIT_SET 7.050e-03
*DRIVER o_ADS1292_INIT_SET_reg:Q
*CELL fd2qd1_hd
*C2_R1_C1 3.525e-03 9.100e-03 3.525e-03 
*LOADS
*RC U718:C 6.416e-05
*RC o_ADS1292_INIT_SET 6.416e-05
*END

*R_NET o_ADS1292_DATA_VALID 7.560e-03
*DRIVER o_ADS1292_DATA_VALID_reg:Q
*CELL fd2qd1_hd
*C2_R1_C1 3.780e-03 9.100e-03 3.780e-03 
*LOADS
*RC U583:B 6.880e-05
*RC o_ADS1292_DATA_VALID 6.880e-05
*END

*R_NET o_ADS1292_BUSY 8.110e-03
*DRIVER o_ADS1292_BUSY_reg:Q
*CELL fd2qd1_hd
*C2_R1_C1 4.055e-03 9.100e-03 4.055e-03 
*LOADS
*RC U869:A 7.380e-05
*RC o_ADS1292_BUSY 7.380e-05
*END

*R_NET o_SPI_CLK 3.150e-03
*DRIVER spi_master/o_SPI_Clk_reg:QN
*CELL fd3d1_hd
*C2_R1_C1 1.575e-03 7.370e-03 1.575e-03 
*LOADS
*RC o_SPI_CLK 2.322e-05
*END

*R_NET i_SPI_MISO 9.200e-03
*DRIVER i_SPI_MISO
*CELL NULL
*C2_R1_C1 4.600e-03 9.100e-03 4.600e-03 
*LOADS
*RC spi_master/U177:A 8.372e-05
*RC spi_master/U162:B 8.372e-05
*END

*R_NET o_SPI_MOSI 7.050e-03
*DRIVER spi_master/o_SPI_MOSI_reg:Q
*CELL fd2qd1_hd
*C2_R1_C1 3.525e-03 9.100e-03 3.525e-03 
*LOADS
*RC spi_master/U164:C 6.416e-05
*RC o_SPI_MOSI 6.416e-05
*END

*R_NET i_ADS1292_DRDY 2.137e-02
*DRIVER i_ADS1292_DRDY
*CELL NULL
*C2_R1_C1 1.068e-02 1.094e-02 1.068e-02 
*LOADS
*RC U739:A 2.338e-04
*RC r_ldrdy_reg:D 2.338e-04
*RC U801:A 2.338e-04
*RC U939:B 2.338e-04
*END

*R_NET o_ADS1292_RESET 3.150e-03
*DRIVER o_ADS1292_RESET_reg:Q
*CELL fd3d1_hd
*C2_R1_C1 1.575e-03 7.370e-03 1.575e-03 
*LOADS
*RC o_ADS1292_RESET 2.322e-05
*END

*R_NET o_ADS1292_START 8.110e-03
*DRIVER o_ADS1292_START_reg:Q
*CELL fd2qd1_hd
*C2_R1_C1 4.055e-03 9.100e-03 4.055e-03 
*LOADS
*RC U874:A 7.380e-05
*RC o_ADS1292_START 7.380e-05
*END

*R_NET o_SPI_CSN 6.980e-03
*DRIVER o_SPI_CSN_reg:Q
*CELL fd3qd1_hd
*C2_R1_C1 3.490e-03 9.100e-03 3.490e-03 
*LOADS
*RC U627:C 6.352e-05
*RC o_SPI_CSN 6.352e-05
*END

*R_NET i_CLK 2.691e+00
*DRIVER i_CLK
*CELL NULL
*C2_R1_C1 1.345e+00 0.000e+00 1.345e+00 
*LOADS
*RC r_lstate_reg_5_:CK 0.000e+00
*RC r_lstate_reg_6_:CK 0.000e+00
*RC r_lstate_reg_1_:CK 0.000e+00
*RC r_syscmd_mode_reg:CK 0.000e+00
*RC r_sdatac_mode_reg:CK 0.000e+00
*RC r_idle_mode_reg:CK 0.000e+00
*RC r_rdatac_mode_reg:CK 0.000e+00
*RC o_ADS1292_INIT_SET_reg:CK 0.000e+00
*RC r_ads_reg_addr_reg_4_:CK 0.000e+00
*RC r_ads_reg_addr_reg_3_:CK 0.000e+00
*RC r_ads_reg_addr_reg_2_:CK 0.000e+00
*RC r_ads_reg_addr_reg_1_:CK 0.000e+00
*RC r_ads_reg_addr_reg_0_:CK 0.000e+00
*RC r_ads_data_in_reg_7_:CK 0.000e+00
*RC r_ads_data_in_reg_6_:CK 0.000e+00
*RC r_ads_data_in_reg_5_:CK 0.000e+00