*SPEF "IEEE 1481-1999"
*DESIGN "ads1292_controller"
*DATE "Tue Jun  9 04:17:48 2020"
*VENDOR "SYNOPSYS INC"
*PROGRAM "Synopsys Design Compiler cmos"
*VERSION "F-2011.09-SP5-3"
*DESIGN_FLOW "SYNTHESIS"
*DIVIDER /
*DELIMITER :
*BUS_DELIMITER []
*T_UNIT 1.0 NS
*C_UNIT 1.0 PF
*R_UNIT 1.0 KOHM
*L_UNIT 1.0 HENRY

*PORTS

o_ADS1292_DATA_OUT\[23\] O *L 1.035e-02 *S 1.237e-01 1.056e-01 
o_ADS1292_DATA_OUT\[22\] O *L 1.035e-02 *S 1.237e-01 1.056e-01 
o_ADS1292_DATA_OUT\[21\] O *L 1.035e-02 *S 1.237e-01 1.056e-01 
o_ADS1292_DATA_OUT\[20\] O *L 1.035e-02 *S 1.237e-01 1.056e-01 
o_ADS1292_DATA_OUT\[19\] O *L 1.035e-02 *S 1.237e-01 1.056e-01 
o_ADS1292_DATA_OUT\[18\] O *L 1.035e-02 *S 1.237e-01 1.056e-01 
o_ADS1292_DATA_OUT\[17\] O *L 1.035e-02 *S 1.237e-01 1.056e-01 
o_ADS1292_DATA_OUT\[16\] O *L 1.035e-02 *S 1.237e-01 1.056e-01 
o_ADS1292_DATA_OUT\[15\] O *L 1.035e-02 *S 1.237e-01 1.056e-01 
o_ADS1292_DATA_OUT\[14\] O *L 1.035e-02 *S 1.237e-01 1.056e-01 
o_ADS1292_DATA_OUT\[13\] O *L 1.035e-02 *S 1.237e-01 1.056e-01 
o_ADS1292_DATA_OUT\[12\] O *L 1.035e-02 *S 1.237e-01 1.056e-01 
o_ADS1292_DATA_OUT\[11\] O *L 1.035e-02 *S 1.237e-01 1.056e-01 
o_ADS1292_DATA_OUT\[10\] O *L 1.035e-02 *S 1.237e-01 1.056e-01 
o_ADS1292_DATA_OUT\[9\] O *L 1.035e-02 *S 1.237e-01 1.056e-01 
o_ADS1292_DATA_OUT\[8\] O *L 1.035e-02 *S 1.237e-01 1.056e-01 
o_ADS1292_DATA_OUT\[7\] O *L 1.035e-02 *S 1.237e-01 1.056e-01 
o_ADS1292_DATA_OUT\[6\] O *L 1.035e-02 *S 1.237e-01 1.056e-01 
o_ADS1292_DATA_OUT\[5\] O *L 1.035e-02 *S 1.237e-01 1.056e-01 
o_ADS1292_DATA_OUT\[4\] O *L 1.035e-02 *S 1.237e-01 1.056e-01 
o_ADS1292_DATA_OUT\[3\] O *L 1.035e-02 *S 1.237e-01 1.056e-01 
o_ADS1292_DATA_OUT\[2\] O *L 1.035e-02 *S 1.237e-01 1.056e-01 
o_ADS1292_DATA_OUT\[1\] O *L 1.035e-02 *S 1.237e-01 1.056e-01 
o_ADS1292_DATA_OUT\[0\] O *L 1.035e-02 *S 1.237e-01 1.056e-01 
i_ADS1292_CONTROL\[2\] I *L 0.000e+00 *S 0.000e+00 0.000e+00 
i_ADS1292_CONTROL\[1\] I *L 0.000e+00 *S 0.000e+00 0.000e+00 
i_ADS1292_CONTROL\[0\] I *L 0.000e+00 *S 0.000e+00 0.000e+00 
i_ADS1292_REG_ADDR\[7\] I *L 0.000e+00 *S 0.000e+00 0.000e+00 
i_ADS1292_REG_ADDR\[6\] I *L 0.000e+00 *S 0.000e+00 0.000e+00 
i_ADS1292_REG_ADDR\[5\] I *L 0.000e+00 *S 0.000e+00 0.000e+00 
i_ADS1292_REG_ADDR\[4\] I *L 0.000e+00 *S 0.000e+00 0.000e+00 
i_ADS1292_REG_ADDR\[3\] I *L 0.000e+00 *S 0.000e+00 0.000e+00 
i_ADS1292_REG_ADDR\[2\] I *L 0.000e+00 *S 0.000e+00 0.000e+00 
i_ADS1292_REG_ADDR\[1\] I *L 0.000e+00 *S 0.000e+00 0.000e+00 
i_ADS1292_REG_ADDR\[0\] I *L 0.000e+00 *S 0.000e+00 0.000e+00 
i_ADS1292_DATA_IN\[7\] I *L 0.000e+00 *S 0.000e+00 0.000e+00 
i_ADS1292_DATA_IN\[6\] I *L 0.000e+00 *S 0.000e+00 0.000e+00 
i_ADS1292_DATA_IN\[5\] I *L 0.000e+00 *S 0.000e+00 0.000e+00 
i_ADS1292_DATA_IN\[4\] I *L 0.000e+00 *S 0.000e+00 0.000e+00 
i_ADS1292_DATA_IN\[3\] I *L 0.000e+00 *S 0.000e+00 0.000e+00 
i_ADS1292_DATA_IN\[2\] I *L 0.000e+00 *S 0.000e+00 0.000e+00 
i_ADS1292_DATA_IN\[1\] I *L 0.000e+00 *S 0.000e+00 0.000e+00 
i_ADS1292_DATA_IN\[0\] I *L 0.000e+00 *S 0.000e+00 0.000e+00 
o_ADS1292_REG_DATA_OUT\[7\] O *L 1.035e-02 *S 1.237e-01 1.056e-01 
o_ADS1292_REG_DATA_OUT\[6\] O *L 1.035e-02 *S 1.237e-01 1.056e-01 
o_ADS1292_REG_DATA_OUT\[5\] O *L 1.035e-02 *S 1.237e-01 1.056e-01 
o_ADS1292_REG_DATA_OUT\[4\] O *L 1.035e-02 *S 1.237e-01 1.056e-01 
o_ADS1292_REG_DATA_OUT\[3\] O *L 1.035e-02 *S 1.237e-01 1.056e-01 
o_ADS1292_REG_DATA_OUT\[2\] O *L 1.035e-02 *S 1.237e-01 1.056e-01 
o_ADS1292_REG_DATA_OUT\[1\] O *L 1.035e-02 *S 1.237e-01 1.056e-01 
o_ADS1292_REG_DATA_OUT\[0\] O *L 1.035e-02 *S 1.237e-01 1.056e-01 
o_ADS1292_INIT_SET O *L 1.035e-02 *S 1.698e-01 1.895e-01 
o_ADS1292_DATA_VALID O *L 1.035e-02 *S 1.698e-01 1.895e-01 
o_ADS1292_BUSY O *L 1.035e-02 *S 1.742e-01 1.937e-01 
o_SPI_CLK O *L 1.035e-02 *S 1.369e-01 1.575e-01 
i_SPI_MISO I *L 0.000e+00 *S 0.000e+00 0.000e+00 
o_SPI_MOSI O *L 1.035e-02 *S 1.730e-01 1.925e-01 
i_ADS1292_DRDY I *L 0.000e+00 *S 0.000e+00 0.000e+00 
o_ADS1292_RESET O *L 1.035e-02 *S 1.724e-01 1.307e-01 
o_ADS1292_START O *L 1.035e-02 *S 1.788e-01 1.982e-01 
o_SPI_CSN O *L 1.035e-02 *S 1.687e-01 1.281e-01 
i_CLK I *L 0.000e+00 *S 0.000e+00 0.000e+00 
i_RSTN I *L 0.000e+00 *S 0.000e+00 0.000e+00 

*R_NET o_ADS1292_DATA_OUT\[23\] 1.350e-02
*DRIVER o_ADS1292_DATA_OUT_reg_23_:Q
*CELL fds2eqd1_hd
*C2_R1_C1 6.750e-03 7.370e-03 6.750e-03 
*LOADS
*RC o_ADS1292_DATA_OUT\[23\] 9.950e-05
*END

*R_NET o_ADS1292_DATA_OUT\[22\] 1.350e-02
*DRIVER o_ADS1292_DATA_OUT_reg_22_:Q
*CELL fds2eqd1_hd
*C2_R1_C1 6.750e-03 7.370e-03 6.750e-03 
*LOADS
*RC o_ADS1292_DATA_OUT\[22\] 9.950e-05
*END

*R_NET o_ADS1292_DATA_OUT\[21\] 1.350e-02
*DRIVER o_ADS1292_DATA_OUT_reg_21_:Q
*CELL fds2eqd1_hd
*C2_R1_C1 6.750e-03 7.370e-03 6.750e-03 
*LOADS
*RC o_ADS1292_DATA_OUT\[21\] 9.950e-05
*END

*R_NET o_ADS1292_DATA_OUT\[20\] 1.350e-02
*DRIVER o_ADS1292_DATA_OUT_reg_20_:Q
*CELL fds2eqd1_hd
*C2_R1_C1 6.750e-03 7.370e-03 6.750e-03 
*LOADS
*RC o_ADS1292_DATA_OUT\[20\] 9.950e-05
*END

*R_NET o_ADS1292_DATA_OUT\[19\] 1.350e-02
*DRIVER o_ADS1292_DATA_OUT_reg_19_:Q
*CELL fds2eqd1_hd
*C2_R1_C1 6.750e-03 7.370e-03 6.750e-03 
*LOADS
*RC o_ADS1292_DATA_OUT\[19\] 9.950e-05
*END

*R_NET o_ADS1292_DATA_OUT\[18\] 1.350e-02
*DRIVER o_ADS1292_DATA_OUT_reg_18_:Q
*CELL fds2eqd1_hd
*C2_R1_C1 6.750e-03 7.370e-03 6.750e-03 
*LOADS
*RC o_ADS1292_DATA_OUT\[18\] 9.950e-05
*END

*R_NET o_ADS1292_DATA_OUT\[17\] 1.350e-02
*DRIVER o_ADS1292_DATA_OUT_reg_17_:Q
*CELL fds2eqd1_hd
*C2_R1_C1 6.750e-03 7.370e-03 6.750e-03 
*LOADS
*RC o_ADS1292_DATA_OUT\[17\] 9.950e-05
*END

*R_NET o_ADS1292_DATA_OUT\[16\] 1.350e-02
*DRIVER o_ADS1292_DATA_OUT_reg_16_:Q
*CELL fds2eqd1_hd
*C2_R1_C1 6.750e-03 7.370e-03 6.750e-03 
*LOADS
*RC o_ADS1292_DATA_OUT\[16\] 9.950e-05
*END

*R_NET o_ADS1292_DATA_OUT\[15\] 1.350e-02
*DRIVER o_ADS1292_DATA_OUT_reg_15_:Q
*CELL fds2eqd1_hd
*C2_R1_C1 6.750e-03 7.370e-03 6.750e-03 
*LOADS
*RC o_ADS1292_DATA_OUT\[15\] 9.950e-05
*END

*R_NET o_ADS1292_DATA_OUT\[14\] 1.350e-02
*DRIVER o_ADS1292_DATA_OUT_reg_14_:Q
*CELL fds2eqd1_hd
*C2_R1_C1 6.750e-03 7.370e-03 6.750e-03 
*LOADS
*RC o_ADS1292_DATA_OUT\[14\] 9.950e-05
*END

*R_NET o_ADS1292_DATA_OUT\[13\] 1.350e-02
*DRIVER o_ADS1292_DATA_OUT_reg_13_:Q
*CELL fds2eqd1_hd
*C2_R1_C1 6.750e-03 7.370e-03 6.750e-03 
*LOADS
*RC o_ADS1292_DATA_OUT\[13\] 9.950e-05
*END

*R_NET o_ADS1292_DATA_OUT\[12\] 1.350e-02
*DRIVER o_ADS1292_DATA_OUT_reg_12_:Q
*CELL fds2eqd1_hd
*C2_R1_C1 6.750e-03 7.370e-03 6.750e-03 
*LOADS
*RC o_ADS1292_DATA_OUT\[12\] 9.950e-05
*END

*R_NET o_ADS1292_DATA_OUT\[11\] 1.350e-02
*DRIVER o_ADS1292_DATA_OUT_reg_11_:Q
*CELL fds2eqd1_hd
*C2_R1_C1 6.750e-03 7.370e-03 6.750e-03 
*LOADS
*RC o_ADS1292_DATA_OUT\[11\] 9.950e-05
*END

*R_NET o_ADS1292_DATA_OUT\[10\] 1.350e-02
*DRIVER o_ADS1292_DATA_OUT_reg_10_:Q
*CELL fds2eqd1_hd
*C2_R1_C1 6.750e-03 7.370e-03 6.750e-03 
*LOADS
*RC o_ADS1292_DATA_OUT\[10\] 9.950e-05
*END

*R_NET o_ADS1292_DATA_OUT\[9\] 1.350e-02
*DRIVER o_ADS1292_DATA_OUT_reg_9_:Q
*CELL fds2eqd1_hd
*C2_R1_C1 6.750e-03 7.370e-03 6.750e-03 
*LOADS
*RC o_ADS1292_DATA_OUT\[9\] 9.950e-05
*END

*R_NET o_ADS1292_DATA_OUT\[8\] 1.350e-02
*DRIVER o_ADS1292_DATA_OUT_reg_8_:Q
*CELL fds2eqd1_hd
*C2_R1_C1 6.750e-03 7.370e-03 6.750e-03 
*LOADS
*RC o_ADS1292_DATA_OUT\[8\] 9.950e-05
*END

*R_NET o_ADS1292_DATA_OUT\[7\] 1.350e-02
*DRIVER o_ADS1292_DATA_OUT_reg_7_:Q
*CELL fds2eqd1_hd
*C2_R1_C1 6.750e-03 7.370e-03 6.750e-03 
*LOADS
*RC o_ADS1292_DATA_OUT\[7\] 9.950e-05
*END

*R_NET o_ADS1292_DATA_OUT\[6\] 1.350e-02
*DRIVER o_ADS1292_DATA_OUT_reg_6_:Q
*CELL fds2eqd1_hd
*C2_R1_C1 6.750e-03 7.370e-03 6.750e-03 
*LOADS
*RC o_ADS1292_DATA_OUT\[6\] 9.950e-05
*END

*R_NET o_ADS1292_DATA_OUT\[5\] 1.350e-02
*DRIVER o_ADS1292_DATA_OUT_reg_5_:Q
*CELL fds2eqd1_hd
*C2_R1_C1 6.750e-03 7.370e-03 6.750e-03 
*LOADS
*RC o_ADS1292_DATA_OUT\[5\] 9.950e-05
*END

*R_NET o_ADS1292_DATA_OUT\[4\] 1.350e-02
*DRIVER o_ADS1292_DATA_OUT_reg_4_:Q
*CELL fds2eqd1_hd
*C2_R1_C1 6.750e-03 7.370e-03 6.750e-03 
*LOADS
*RC o_ADS1292_DATA_OUT\[4\] 9.950e-05
*END

*R_NET o_ADS1292_DATA_OUT\[3\] 1.350e-02
*DRIVER o_ADS1292_DATA_OUT_reg_3_:Q
*CELL fds2eqd1_hd
*C2_R1_C1 6.750e-03 7.370e-03 6.750e-03 
*LOADS
*RC o_ADS1292_DATA_OUT\[3\] 9.950e-05
*END

*R_NET o_ADS1292_DATA_OUT\[2\] 1.350e-02
*DRIVER o_ADS1292_DATA_OUT_reg_2_:Q
*CELL fds2eqd1_hd
*C2_R1_C1 6.750e-03 7.370e-03 6.750e-03 
*LOADS
*RC o_ADS1292_DATA_OUT\[2\] 9.950e-05
*END

*R_NET o_ADS1292_DATA_OUT\[1\] 1.350e-02
*DRIVER o_ADS1292_DATA_OUT_reg_1_:Q
*CELL fds2eqd1_hd
*C2_R1_C1 6.750e-03 7.370e-03 6.750e-03 
*LOADS
*RC o_ADS1292_DATA_OUT\[1\] 9.950e-05
*END

*R_NET o_ADS1292_DATA_OUT\[0\] 1.350e-02
*DRIVER o_ADS1292_DATA_OUT_reg_0_:Q
*CELL fds2eqd1_hd
*C2_R1_C1 6.750e-03 7.370e-03 6.750e-03 
*LOADS
*RC o_ADS1292_DATA_OUT\[0\] 9.950e-05
*END

*R_NET i_ADS1292_CONTROL\[2\] 3.786e-02
*DRIVER i_ADS1292_CONTROL\[2\]
*CELL NULL
*C2_R1_C1 1.893e-02 1.715e-02 1.893e-02 
*LOADS
*RC U446:B 6.493e-04
*RC U447:B 6.493e-04
*RC U626:A 6.493e-04
*RC U628:D 6.493e-04
*RC U629:D 6.493e-04
*RC U637:A 6.493e-04
*RC U638:A 6.493e-04
*END

*R_NET i_ADS1292_CONTROL\[1\] 3.932e-02
*DRIVER i_ADS1292_CONTROL\[1\]
*CELL NULL
*C2_R1_C1 1.966e-02 1.715e-02 1.966e-02 
*LOADS
*RC U626:B 6.743e-04
*RC U627:B 6.743e-04
*RC U628:C 6.743e-04
*RC U629:C 6.743e-04
*RC U636:A 6.743e-04
*RC U638:B 6.743e-04
*RC U639:B 6.743e-04
*END

*R_NET i_ADS1292_CONTROL\[0\] 2.238e-02
*DRIVER i_ADS1292_CONTROL\[0\]
*CELL NULL
*C2_R1_C1 1.119e-02 1.094e-02 1.119e-02 
*LOADS
*RC U447:A 2.448e-04
*RC U627:A 2.448e-04
*RC U634:B 2.448e-04
*RC U640:A 2.448e-04
*END

*R_NET i_ADS1292_REG_ADDR\[7\] 4.670e-03
*DRIVER i_ADS1292_REG_ADDR\[7\]
*CELL NULL
*C2_R1_C1 2.335e-03 7.370e-03 2.335e-03 
*LOADS
*RC U389:D 3.442e-05
*END

*R_NET i_ADS1292_REG_ADDR\[6\] 4.670e-03
*DRIVER i_ADS1292_REG_ADDR\[6\]
*CELL NULL
*C2_R1_C1 2.335e-03 7.370e-03 2.335e-03 
*LOADS
*RC U388:D 3.442e-05
*END

*R_NET i_ADS1292_REG_ADDR\[5\] 4.670e-03
*DRIVER i_ADS1292_REG_ADDR\[5\]
*CELL NULL
*C2_R1_C1 2.335e-03 7.370e-03 2.335e-03 
*LOADS
*RC U387:D 3.442e-05
*END

*R_NET i_ADS1292_REG_ADDR\[4\] 5.190e-03
*DRIVER i_ADS1292_REG_ADDR\[4\]
*CELL NULL
*C2_R1_C1 2.595e-03 7.370e-03 2.595e-03 
*LOADS
*RC U455:B 3.825e-05
*END

*R_NET i_ADS1292_REG_ADDR\[3\] 5.190e-03
*DRIVER i_ADS1292_REG_ADDR\[3\]
*CELL NULL
*C2_R1_C1 2.595e-03 7.370e-03 2.595e-03 
*LOADS
*RC U457:B 3.825e-05
*END

*R_NET i_ADS1292_REG_ADDR\[2\] 5.190e-03
*DRIVER i_ADS1292_REG_ADDR\[2\]
*CELL NULL
*C2_R1_C1 2.595e-03 7.370e-03 2.595e-03 
*LOADS
*RC U458:B 3.825e-05
*END

*R_NET i_ADS1292_REG_ADDR\[1\] 5.190e-03
*DRIVER i_ADS1292_REG_ADDR\[1\]
*CELL NULL
*C2_R1_C1 2.595e-03 7.370e-03 2.595e-03 
*LOADS
*RC U459:B 3.825e-05
*END

*R_NET i_ADS1292_REG_ADDR\[0\] 5.190e-03
*DRIVER i_ADS1292_REG_ADDR\[0\]
*CELL NULL
*C2_R1_C1 2.595e-03 7.370e-03 2.595e-03 
*LOADS
*RC U456:B 3.825e-05
*END

*R_NET i_ADS1292_DATA_IN\[7\] 4.780e-03
*DRIVER i_ADS1292_DATA_IN\[7\]
*CELL NULL
*C2_R1_C1 2.390e-03 7.370e-03 2.390e-03 
*LOADS
*RC U441:B 3.523e-05
*END

*R_NET i_ADS1292_DATA_IN\[6\] 4.780e-03
*DRIVER i_ADS1292_DATA_IN\[6\]
*CELL NULL
*C2_R1_C1 2.390e-03 7.370e-03 2.390e-03 
*LOADS
*RC U440:B 3.523e-05
*END

*R_NET i_ADS1292_DATA_IN\[5\] 4.780e-03
*DRIVER i_ADS1292_DATA_IN\[5\]
*CELL NULL
*C2_R1_C1 2.390e-03 7.370e-03 2.390e-03 
*LOADS
*RC U439:B 3.523e-05
*END

*R_NET i_ADS1292_DATA_IN\[4\] 4.780e-03
*DRIVER i_ADS1292_DATA_IN\[4\]
*CELL NULL
*C2_R1_C1 2.390e-03 7.370e-03 2.390e-03 
*LOADS
*RC U438:B 3.523e-05
*END

*R_NET i_ADS1292_DATA_IN\[3\] 4.780e-03
*DRIVER i_ADS1292_DATA_IN\[3\]
*CELL NULL
*C2_R1_C1 2.390e-03 7.370e-03 2.390e-03 
*LOADS
*RC U437:B 3.523e-05
*END

*R_NET i_ADS1292_DATA_IN\[2\] 4.780e-03
*DRIVER i_ADS1292_DATA_IN\[2\]
*CELL NULL
*C2_R1_C1 2.390e-03 7.370e-03 2.390e-03 
*LOADS
*RC U436:B 3.523e-05
*END

*R_NET i_ADS1292_DATA_IN\[1\] 4.780e-03
*DRIVER i_ADS1292_DATA_IN\[1\]
*CELL NULL
*C2_R1_C1 2.390e-03 7.370e-03 2.390e-03 
*LOADS
*RC U435:B 3.523e-05
*END

*R_NET i_ADS1292_DATA_IN\[0\] 4.780e-03
*DRIVER i_ADS1292_DATA_IN\[0\]
*CELL NULL
*C2_R1_C1 2.390e-03 7.370e-03 2.390e-03 
*LOADS
*RC U434:B 3.523e-05
*END

*R_NET o_ADS1292_REG_DATA_OUT\[7\] 1.350e-02
*DRIVER o_ADS1292_REG_DATA_OUT_reg_7_:Q
*CELL fds2eqd1_hd
*C2_R1_C1 6.750e-03 7.370e-03 6.750e-03 
*LOADS
*RC o_ADS1292_REG_DATA_OUT\[7\] 9.950e-05
*END

*R_NET o_ADS1292_REG_DATA_OUT\[6\] 1.350e-02
*DRIVER o_ADS1292_REG_DATA_OUT_reg_6_:Q
*CELL fds2eqd1_hd
*C2_R1_C1 6.750e-03 7.370e-03 6.750e-03 
*LOADS
*RC o_ADS1292_REG_DATA_OUT\[6\] 9.950e-05
*END

*R_NET o_ADS1292_REG_DATA_OUT\[5\] 1.350e-02
*DRIVER o_ADS1292_REG_DATA_OUT_reg_5_:Q
*CELL fds2eqd1_hd
*C2_R1_C1 6.750e-03 7.370e-03 6.750e-03 
*LOADS
*RC o_ADS1292_REG_DATA_OUT\[5\] 9.950e-05
*END

*R_NET o_ADS1292_REG_DATA_OUT\[4\] 1.350e-02
*DRIVER o_ADS1292_REG_DATA_OUT_reg_4_:Q
*CELL fds2eqd1_hd
*C2_R1_C1 6.750e-03 7.370e-03 6.750e-03 
*LOADS
*RC o_ADS1292_REG_DATA_OUT\[4\] 9.950e-05
*END

*R_NET o_ADS1292_REG_DATA_OUT\[3\] 1.350e-02
*DRIVER o_ADS1292_REG_DATA_OUT_reg_3_:Q
*CELL fds2eqd1_hd
*C2_R1_C1 6.750e-03 7.370e-03 6.750e-03 
*LOADS
*RC o_ADS1292_REG_DATA_OUT\[3\] 9.950e-05
*END

*R_NET o_ADS1292_REG_DATA_OUT\[2\] 1.350e-02
*DRIVER o_ADS1292_REG_DATA_OUT_reg_2_:Q
*CELL fds2eqd1_hd
*C2_R1_C1 6.750e-03 7.370e-03 6.750e-03 
*LOADS
*RC o_ADS1292_REG_DATA_OUT\[2\] 9.950e-05
*END

*R_NET o_ADS1292_REG_DATA_OUT\[1\] 1.350e-02
*DRIVER o_ADS1292_REG_DATA_OUT_reg_1_:Q
*CELL fds2eqd1_hd
*C2_R1_C1 6.750e-03 7.370e-03 6.750e-03 
*LOADS
*RC o_ADS1292_REG_DATA_OUT\[1\] 9.950e-05
*END

*R_NET o_ADS1292_REG_DATA_OUT\[0\] 1.350e-02
*DRIVER o_ADS1292_REG_DATA_OUT_reg_0_:Q
*CELL fds2eqd1_hd
*C2_R1_C1 6.750e-03 7.370e-03 6.750e-03 
*LOADS
*RC o_ADS1292_REG_DATA_OUT\[0\] 9.950e-05
*END

*R_NET o_ADS1292_INIT_SET 1.740e-02
*DRIVER o_ADS1292_INIT_SET_reg:Q
*CELL fd4qd1_hd
*C2_R1_C1 8.700e-03 9.100e-03 8.700e-03 
*LOADS
*RC U445:C 1.583e-04
*RC o_ADS1292_INIT_SET 1.583e-04
*END

*R_NET o_ADS1292_DATA_VALID 1.740e-02
*DRIVER o_ADS1292_DATA_VALID_reg:Q
*CELL fd4qd1_hd
*C2_R1_C1 8.700e-03 9.100e-03 8.700e-03 
*LOADS
*RC U624:D 1.583e-04
*RC o_ADS1292_DATA_VALID 1.583e-04
*END

*R_NET o_ADS1292_BUSY 1.791e-02
*DRIVER o_ADS1292_BUSY_reg:Q
*CELL fd4qd1_hd
*C2_R1_C1 8.955e-03 9.100e-03 8.955e-03 
*LOADS
*RC U433:B 1.630e-04
*RC o_ADS1292_BUSY 1.630e-04
*END

*R_NET o_SPI_CLK 1.350e-02
*DRIVER spi_master/o_SPI_Clk_reg:Q
*CELL fd4qd1_hd
*C2_R1_C1 6.750e-03 7.370e-03 6.750e-03 
*LOADS
*RC o_SPI_CLK 9.950e-05
*END

*R_NET i_SPI_MISO 4.343e-02
*DRIVER i_SPI_MISO
*CELL NULL
*C2_R1_C1 2.172e-02 2.066e-02 2.172e-02 
*LOADS
*RC spi_master/U177:D1 8.973e-04
*RC spi_master/U172:D1 8.973e-04
*RC spi_master/U169:D1 8.973e-04
*RC spi_master/U166:D1 8.973e-04
*RC spi_master/U163:D1 8.973e-04
*RC spi_master/U160:D1 8.973e-04
*RC spi_master/U157:D1 8.973e-04
*RC spi_master/U154:D1 8.973e-04
*END

*R_NET o_SPI_MOSI 1.777e-02
*DRIVER spi_master/o_SPI_MOSI_reg:Q
*CELL fd4qd1_hd
*C2_R1_C1 8.885e-03 9.100e-03 8.885e-03 
*LOADS
*RC spi_master/U175:D0 1.617e-04
*RC o_SPI_MOSI 1.617e-04
*END

*R_NET i_ADS1292_DRDY 2.647e-02
*DRIVER i_ADS1292_DRDY
*CELL NULL
*C2_R1_C1 1.324e-02 1.549e-02 1.324e-02 
*LOADS
*RC r_ldrdy_reg:D 4.100e-04
*RC U652:AN 4.100e-04
*RC U758:B 4.100e-04
*RC U811:B 4.100e-04
*RC U839:A 4.100e-04
*END

*R_NET o_ADS1292_RESET 1.835e-02
*DRIVER o_ADS1292_RESET_reg:Q
*CELL fd3qd1_hd
*C2_R1_C1 9.175e-03 9.100e-03 9.175e-03 
*LOADS
*RC U676:B 1.670e-04
*RC o_ADS1292_RESET 1.670e-04
*END

*R_NET o_ADS1292_START 1.846e-02
*DRIVER o_ADS1292_START_reg:Q
*CELL fd4qd1_hd
*C2_R1_C1 9.230e-03 9.100e-03 9.230e-03 
*LOADS
*RC U622:A 1.680e-04
*RC o_ADS1292_START 1.680e-04
*END

*R_NET o_SPI_CSN 1.791e-02
*DRIVER o_SPI_CSN_reg:Q
*CELL fd3qd1_hd
*C2_R1_C1 8.955e-03 9.100e-03 8.955e-03 
*LOADS
*RC U449:B 1.630e-04
*RC o_SPI_CSN 1.630e-04
*END

*R_NET i_CLK 2.514e+00
*DRIVER i_CLK
*CELL NULL
*C2_R1_C1 1.257e+00 0.000e+00 1.257e+00 
*LOADS
*RC r_ldrdy_reg:CK 0.000e+00
*RC r_clk_counter_reg_31_:CK 0.000e+00
*RC r_clk_counter_reg_30_:CK 0.000e+00
*RC r_clk_counter_reg_29_:CK 0.000e+00
*RC r_clk_counter_reg_28_:CK 0.000e+00
*RC r_clk_counter_reg_27_:CK 0.000e+00
*RC r_clk_counter_reg_26_:CK 0.000e+00
*RC r_clk_counter_reg_25_:CK 0.000e+00
*RC r_clk_counter_reg_24_:CK 0.000e+00
*RC r_clk_counter_reg_23_:CK 0.000e+00
*RC r_clk_counter_reg_22_:CK 0.000e+00
*RC r_data_counter_reg_3_:CK 0.000e+00
*RC r_data_counter_reg_2_:CK 0.000e+00
*RC r_clk_counter_reg_21_:CK 0.000e+00
*RC r_data_counter_reg_1_:CK 0.000e+00
*RC r_clk_counter_reg_20_:CK 0.000e+00
*RC r_data_counter_reg_0_:CK 0.000e+00
*RC r_clk_counter_reg_19_:CK 0.000e+00
*RC o_ADS1292_DATA_VALID_reg:CK 0.000e+00
*RC r_pstate_reg_0_:CK 0.000e+00
*RC r_pstate_reg_2_:CK 0.000e+00
*RC r_ads_command_reg_0_:CK 0.000e+00
*RC r_spi_data_in_reg_0_:CK 0.000e+00
*RC r_spi_data_in_reg_1_:CK 0.000e+00
*RC r_spi_data_in_reg_2_:CK 0.000e+00
*RC r_spi_data_in_reg_3_:CK 0.000e+00
*RC r_spi_data_in_reg_4_:CK 0.000e+00
*RC r_spi_data_in_reg_6_:CK 0.000e+00
*RC r_ads_command_reg_5_:CK 0.000e+00
*RC r_ads_command_reg_6_:CK 0.000e+00
*RC r_ads_command_reg_7_:CK 0.000e+00
*RC r_clk_counter_reg_18_:CK 0.000e+00
*RC r_spi_data_in_reg_7_:CK 0.000e+00
*RC r_clk_counter_reg_0_:CK 0.000e+00
*RC r_clk_counter_reg_1_:CK 0.000e+00
*RC r_clk_counter_reg_2_:CK 0.000e+00
*RC r_clk_counter_reg_3_:CK 0.000e+00
*RC r_clk_counter_reg_4_:CK 0.000e+00
*RC r_clk_counter_reg_5_:CK 0.000e+00
*RC r_clk_counter_reg_6_:CK 0.000e+00
*RC r_clk_counter_reg_7_:CK 0.000e+00
*RC r_clk_counter_reg_8_:CK 0.000e+00
*RC r_clk_counter_reg_9_:CK 0.000e+00
*RC r_clk_counter_reg_10_:CK 0.000e+00
*RC r_clk_counter_reg_11_:CK 0.000e+00
*RC r_clk_counter_reg_12_:CK 0.000e+00
*RC r_clk_counter_reg_13_:CK 0.000e+00
*RC r_clk_counter_reg_14_:CK 0.000e+00
*RC r_clk_counter_reg_15_:CK 0.000e+00
*RC r_clk_counter_reg_16_:CK 0.000e+00
*RC r_clk_counter_reg_17_:CK 0.000e+00
*RC r_pstate_reg_5_:CK 0.000e+00
*RC r_pstate_reg_4_:CK 0.000e+00
*RC r_ads_command_reg_4_:CK 0.000e+00
*RC r_pstate_reg_6_:CK 0.000e+00
*RC r_spi_data_in_reg_5_:CK 0.000e+00
*RC o_ADS1292_START_reg:CK 0.000e+00
*RC r_ads_command_reg_1_:CK 0.000e+00
*RC r_ads_command_reg_2_:CK 0.000e+00
*RC r_ads_command_reg_3_:CK 0.000e+00
*RC r_ads_data_out_reg_0_:CK 0.000e+00
*RC r_ads_data_out_reg_1_:CK 0.000e+00
*RC r_ads_data_out_reg_2_:CK 0.000e+00
*RC r_ads_data_out_reg_3_:CK 0.000e+00
*RC r_ads_data_out_reg_4_:CK 0.000e+00
*RC r_ads_data_out_reg_5_:CK 0.000e+00
*RC r_ads_data_out_reg_6_:CK 0.000e+00
*RC r_ads_data_out_reg_7_:CK 0.000e+00
*RC r_ads_data_out_reg_8_:CK 0.000e+00
*RC r_ads_data_out_reg_9_:CK 0.000e+00
*RC r_ads_data_out_reg_10_:CK 0.000e+00
*RC r_ads_data_out_reg_11_:CK 0.000e+00
*RC r_ads_data_out_reg_12_:CK 0.000e+00
*RC r_ads_data_out_reg_13_:CK 0.000e+00
*RC r_ads_data_out_reg_14_:CK 0.000e+00
*RC r_ads_data_out_reg_15_:CK 0.000e+00
*RC r_ads_data_out_reg_16_:CK 0.000e+00
*RC r_ads_data_out_reg_17_:CK 0.000e+00
*RC r_ads_data_out_reg_18_:CK 0.000e+00
*RC r_ads_data_out_reg_19_:CK 0.000e+00
*RC r_ads_data_out_reg_20_:CK 0.000e+00
*RC r_ads_data_out_reg_21_:CK 0.000e+00
*RC r_ads_data_out_reg_22_:CK 0.000e+00
*RC r_ads_data_out_reg_23_:CK 0.000e+00
*RC o_ADS1292_BUSY_reg:CK 0.000e+00
*RC r_ads_reg_addr_reg_0_:CK 0.000e+00
*RC r_ads_reg_addr_reg_1_:CK 0.000e+00
*RC r_ads_reg_addr_reg_2_:CK 0.000e+00
*RC r_ads_reg_addr_reg_3_:CK 0.000e+00
*RC r_ads_reg_addr_reg_4_:CK 0.000e+00
*RC r_ads_data_in_reg_0_:CK 0.000e+00
*RC r_ads_data_in_reg_1_:CK 0.000e+00
*RC r_ads_data_in_reg_2_:CK 0.000e+00
*RC r_ads_data_in_reg_3_:CK 0.000e+00
*RC r_ads_data_in_reg_4_:CK 0.000e+00
*RC r_ads_data_in_reg_5_:CK 0.000e+00
*RC r_ads_data_in_reg_6_:CK 0.000e+00
*RC r_ads_data_in_reg_7_:CK 0.000e+00
*RC r_spi_data_in_valid_reg:CK 0.000e+00
*RC r_pstate_reg_1_:CK 0.000e+00
*RC r_drdy_edge_counter_reg_0_:CK 0.000e+00
*RC r_drdy_edge_counter_reg_1_:CK 0.000e+00
*RC o_ADS1292_INIT_SET_reg:CK 0.000e+00
*RC r_syscmd_mode_reg:CK 0.000e+00
*RC r_rdatac_mode_reg:CK 0.000e+00
*RC r_idle_mode_reg:CK 0.000e+00
*RC r_wreg_mode_reg:CK 0.000e+00
*RC r_rreg_mode_reg:CK 0.000e+00
*RC r_lstate_reg_0_:CK 0.000e+00
*RC r_lstate_reg_1_:CK 0.000e+00
*RC r_lstate_reg_2_:CK 0.000e+00
*RC r_lstate_reg_4_:CK 0.000e+00
*RC r_lstate_reg_5_:CK 0.000e+00
*RC r_lstate_reg_6_:CK 0.000e+00
*RC o_ADS1292_DATA_OUT_reg_0_:CK 0.000e+00
*RC o_ADS1292_DATA_OUT_reg_1_:CK 0.000e+00
*RC o_ADS1292_DATA_OUT_reg_2_:CK 0.000e+00
*RC o_ADS1292_DATA_OUT_reg_3_:CK 0.000e+00
*RC o_ADS1292_DATA_OUT_reg_4_:CK 0.000e+00
*RC o_ADS1292_DATA_OUT_reg_5_:CK 0.000e+00
*RC o_ADS1292_DATA_OUT_reg_6_:CK 0.000e+00
*RC o_ADS1292_DATA_OUT_reg_7_:CK 0.000e+00
*RC o_ADS1292_DATA_OUT_reg_8_:CK 0.000e+00
*RC o_ADS1292_DATA_OUT_reg_9_:CK 0.000e+00
*RC o_ADS1292_DATA_OUT_reg_10_:CK 0.000e+00
*RC o_ADS1292_DATA_OUT_reg_11_:CK 0.000e+00
*RC o_ADS1292_DATA_OUT_reg_12_:CK 0.000e+00
*RC o_ADS1292_DATA_OUT_reg_13_:CK 0.000e+00
*RC o_ADS1292_DATA_OUT_reg_14_:CK 0.000e+00
*RC o_ADS1292_DATA_OUT_reg_15_:CK 0.000e+00
*RC o_ADS1292_DATA_OUT_reg_16_:CK 0.000e+00
*RC o_ADS1292_DATA_OUT_reg_17_:CK 0.000e+00
*RC o_ADS1292_DATA_OUT_reg_18_:CK 0.000e+00
*RC o_ADS1292_DATA_OUT_reg_19_:CK 0.000e+00
*RC o_ADS1292_DATA_OUT_reg_20_:CK 0.000e+00
*RC o_ADS1292_DATA_OUT_reg_21_:CK 0.000e+00
*RC o_ADS1292_DATA_OUT_reg_22_:CK 0.000e+00
*RC o_ADS1292_DATA_OUT_reg_23_:CK 0.000e+00
*RC o_ADS1292_REG_DATA_OUT_reg_0_:CK 0.000e+00
*RC o_ADS1292_REG_DATA_OUT_reg_1_:CK 0.000e+00
*RC o_ADS1292_REG_DATA_OUT_reg_2_:CK 0.000e+00
*RC o_ADS1292_REG_DATA_OUT_reg_3_:CK 0.000e+00
*RC o_ADS1292_REG_DATA_OUT_reg_4_:CK 0.000e+00
*RC o_ADS1292_REG_DATA_OUT_reg_5_:CK 0.000e+00
*RC o_ADS1292_REG_DATA_OUT_reg_6_:CK 0.000e+00
*RC o_ADS1292_REG_DATA_OUT_reg_7_:CK 0.000e+00
*RC o_ADS1292_RESET_reg:CK 0.000e+00
*RC o_SPI_CSN_reg:CK 0.000e+00
*RC r_sdatac_mode_reg:CK 0.000e+00
*RC spi_master/r_RX_Bit_Count_reg_0_:CK 0.000e+00
*RC spi_master/r_SPI_Clk_Count_reg_5_:CK 0.000e+00
*RC spi_master/r_SPI_Clk_Edges_reg_0_:CK 0.000e+00
*RC spi_master/r_SPI_Clk_Edges_reg_1_:CK 0.000e+00
*RC spi_master/r_SPI_Clk_Edges_reg_2_:CK 0.000e+00
*RC spi_master/r_SPI_Clk_Edges_reg_3_:CK 0.000e+00
*RC spi_master/r_SPI_Clk_Edges_reg_4_:CK 0.000e+00
*RC spi_master/r_SPI_Clk_Edges_reg_5_:CK 0.000e+00
*RC spi_master/r_SPI_Clk_Edges_reg_6_:CK 0.000e+00
*RC spi_master/r_SPI_Clk_Edges_reg_7_:CK 0.000e+00
*RC spi_master/r_SPI_Clk_Count_reg_0_:CK 0.000e+00
*RC spi_master/r_SPI_Clk_Count_reg_1_:CK 0.000e+00
*RC spi_master/r_SPI_Clk_Count_reg_2_:CK 0.000e+00
*RC spi_master/r_SPI_Clk_Count_reg_3_:CK 0.000e+00
*RC spi_master/r_SPI_Clk_Count_reg_4_:CK 0.000e+00
*RC spi_master/r_SPI_Clk_Count_reg_6_:CK 0.000e+00
*RC spi_master/r_SPI_Clk_Count_reg_7_:CK 0.000e+00
*RC spi_master/r_SPI_Clk_Count_reg_8_:CK 0.000e+00
*RC spi_master/r_SPI_Clk_Count_reg_9_:CK 0.000e+00
*RC spi_master/r_SPI_Clk_Count_reg_10_:CK 0.000e+00
*RC spi_master/r_SPI_Clk_Count_reg_11_:CK 0.000e+00
*RC spi_master/r_SPI_Clk_Count_reg_12_:CK 0.000e+00
*RC spi_master/r_SPI_Clk_Count_reg_13_:CK 0.000e+00
*RC spi_master/r_SPI_Clk_reg:CK 0.000e+00
*RC spi_master/r_Leading_Edge_reg:CK 0.000e+00
*RC spi_master/r_Trailing_Edge_reg:CK 0.000e+00
*RC spi_master/o_RX_Byte_reg_5_:CK 0.000e+00
*RC spi_master/o_RX_Byte_reg_1_:CK 0.000e+00
*RC spi_master/o_RX_Byte_reg_4_:CK 0.000e+00
*RC spi_master/o_RX_Byte_reg_0_:CK 0.000e+00
*RC spi_master/o_RX_Byte_reg_6_:CK 0.000e+00
*RC spi_master/o_RX_Byte_reg_2_:CK 0.000e+00
*RC spi_master/o_RX_Byte_reg_3_:CK 0.000e+00
*RC spi_master/o_SPI_MOSI_reg:CK 0.000e+00
*RC spi_master/o_RX_Byte_reg_7_:CK 0.000e+00
*RC spi_master/o_RX_DV_reg:CK 0.000e+00
*RC spi_master/o_TX_Ready_reg:CK 0.000e+00
*RC spi_master/r_TX_Byte_reg_3_:CK 0.000e+00
*RC spi_master/r_TX_Byte_reg_7_:CK 0.000e+00
*RC spi_master/r_TX_Byte_reg_0_:CK 0.000e+00
*RC spi_master/r_TX_Byte_reg_4_:CK 0.000e+00
*RC spi_master/r_TX_Byte_reg_1_:CK 0.000e+00
*RC spi_master/r_TX_Byte_reg_5_:CK 0.000e+00
*RC spi_master/r_TX_Byte_reg_2_:CK 0.000e+00
*RC spi_master/r_TX_Byte_reg_6_:CK 0.000e+00
*RC spi_master/o_SPI_Clk_reg:CK 0.000e+00
*RC spi_master/r_RX_Bit_Count_reg_2_:CK 0.000e+00
*RC spi_master/r_RX_Bit_Count_reg_1_:CK 0.000e+00
*RC spi_master/r_TX_Bit_Count_reg_2_:CK 0.000e+00
*RC spi_master/r_TX_Bit_Count_reg_1_:CK 0.000e+00
*RC spi_master/r_TX_Bit_Count_reg_0_:CK 0.000e+00
*END

*R_NET r_spi_data_in\[7\] 9.900e-03
*DRIVER r_spi_data_in_reg_7_:Q
*CELL fd4qd1_hd
*C2_R1_C1 4.950e-03 9.100e-03 4.950e-03 
*LOADS
*RC U694:D 9.009e-05
*RC spi_master/U182:B 9.009e-05
*END

*R_NET r_spi_data_in\[6\] 8.670e-03
*DRIVER r_spi_data_in_reg_6_:Q
*CELL fd4qd1_hd
*C2_R1_C1 4.335e-03 9.100e-03 4.335e-03 
*LOADS
*RC U450:D 7.890e-05
*RC spi_master/U188:B 7.890e-05
*END

*R_NET r_spi_data_in\[5\] 8.730e-03
*DRIVER r_spi_data_in_reg_5_:Q
*CELL fd4qd1_hd
*C2_R1_C1 4.365e-03 9.100e-03 4.365e-03 
*LOADS
*RC U688:B 7.944e-05
*RC spi_master/U186:B 7.944e-05
*END

*R_NET r_spi_data_in\[4\] 8.670e-03
*DRIVER r_spi_data_in_reg_4_:Q
*CELL fd4qd1_hd
*C2_R1_C1 4.335e-03 9.100e-03 4.335e-03 
*LOADS
*RC U451:D 7.890e-05
*RC spi_master/U184:B 7.890e-05
*END

*R_NET r_spi_data_in\[3\] 8.670e-03
*DRIVER r_spi_data_in_reg_3_:Q
*CELL fd4qd1_hd
*C2_R1_C1 4.335e-03 9.100e-03 4.335e-03 
*LOADS
*RC U452:D 7.890e-05
*RC spi_master/U181:B 7.890e-05
*END

*R_NET r_spi_data_in\[2\] 8.670e-03
*DRIVER r_spi_data_in_reg_2_:Q
*CELL fd4qd1_hd
*C2_R1_C1 4.335e-03 9.100e-03 4.335e-03 
*LOADS
*RC U386:D 7.890e-05
*RC spi_master/U187:B 7.890e-05
*END

*R_NET r_spi_data_in\[1\] 8.670e-03
*DRIVER r_spi_data_in_reg_1_:Q
*CELL fd4qd1_hd
*C2_R1_C1 4.335e-03 9.100e-03 4.335e-03 
*LOADS
*RC U385:D 7.890e-05
*RC spi_master/U185:B 7.890e-05
*END

*R_NET r_spi_data_in\[0\] 8.670e-03
*DRIVER r_spi_data_in_reg_0_:Q
*CELL fd4qd1_hd
*C2_R1_C1 4.335e-03 9.100e-03 4.335e-03 
*LOADS
*RC U384:D 7.890e-05
*RC spi_master/U183:B 7.890e-05
*END

*R_NET r_spi_data_in_valid 5.765e-02
*DRIVER r_spi_data_in_valid_reg:Q
*CELL fd4qd1_hd
*C2_R1_C1 2.882e-02 2.188e-02 2.882e-02 
*LOADS
*RC U614:D 1.261e-03
*RC spi_master/U259:B 1.261e-03
*RC spi_master/U188:A 1.261e-03
*RC spi_master/U187:A 1.261e-03
*RC spi_master/U186:A 1.261e-03
*RC spi_master/U185:A 1.261e-03
*RC spi_master/U184:A 1.261e-03
*RC spi_master/U183:A 1.261e-03
*RC spi_master/U182:A 1.261e-03
*RC spi_master/U181:A 1.261e-03
*RC spi_master/U60:C 1.261e-03
*RC spi_master/U35:A 1.261e-03
*RC spi_master/U30:A 1.261e-03
*END

*R_NET w_spi_data_in_ready 6.694e-02
*DRIVER spi_master/o_TX_Ready_reg:Q
*CELL fd4qd1_hd
*C2_R1_C1 3.347e-02 2.212e-02 3.347e-02 
*LOADS
*RC spi_master/U253:A 1.481e-03
*RC spi_master/U131:A 1.481e-03
*RC spi_master/U50:C 1.481e-03
*RC spi_master/U49:C 1.481e-03
*RC spi_master/U46:C 1.481e-03
*RC spi_master/U45:C 1.481e-03
*RC U698:B 1.481e-03
*RC U713:A 1.481e-03
*RC U721:A 1.481e-03
*RC U726:A 1.481e-03
*RC U749:A 1.481e-03
*RC U772:A 1.481e-03
*RC U832:B 1.481e-03
*RC U838:A 1.481e-03
*END

*R_NET w_spi_data_out_valid 2.796e-02
*DRIVER spi_master/o_RX_DV_reg:Q
*CELL fd4qd1_hd
*C2_R1_C1 1.398e-02 1.549e-02 1.398e-02 
*LOADS
*RC U357:B 4.331e-04
*RC U710:C 4.331e-04
*RC U753:B 4.331e-04
*RC U790:C 4.331e-04
*RC U866:A 4.331e-04
*END

*R_NET w_spi_data_out\[7\] 1.404e-02
*DRIVER spi_master/o_RX_Byte_reg_7_:Q
*CELL fd4qd1_hd
*C2_R1_C1 7.020e-03 9.460e-03 7.020e-03 
*LOADS
*RC spi_master/U177:D0 1.328e-04
*RC U420:B 1.328e-04
*RC o_ADS1292_REG_DATA_OUT_reg_7_:D 1.328e-04
*END

*R_NET w_spi_data_out\[6\] 1.404e-02
*DRIVER spi_master/o_RX_Byte_reg_6_:Q
*CELL fd4qd1_hd
*C2_R1_C1 7.020e-03 9.460e-03 7.020e-03 
*LOADS
*RC spi_master/U166:D0 1.328e-04
*RC U419:B 1.328e-04
*RC o_ADS1292_REG_DATA_OUT_reg_6_:D 1.328e-04
*END

*R_NET w_spi_data_out\[5\] 1.404e-02
*DRIVER spi_master/o_RX_Byte_reg_5_:Q
*CELL fd4qd1_hd
*C2_R1_C1 7.020e-03 9.460e-03 7.020e-03 
*LOADS
*RC spi_master/U154:D0 1.328e-04
*RC U418:B 1.328e-04
*RC o_ADS1292_REG_DATA_OUT_reg_5_:D 1.328e-04
*END

*R_NET w_spi_data_out\[4\] 1.404e-02
*DRIVER spi_master/o_RX_Byte_reg_4_:Q
*CELL fd4qd1_hd
*C2_R1_C1 7.020e-03 9.460e-03 7.020e-03 
*LOADS
*RC spi_master/U160:D0 1.328e-04
*RC U417:B 1.328e-04
*RC o_ADS1292_REG_DATA_OUT_reg_4_:D 1.328e-04
*END

*R_NET w_spi_data_out\[3\] 1.404e-02
*DRIVER spi_master/o_RX_Byte_reg_3_:Q
*CELL fd4qd1_hd
*C2_R1_C1 7.020e-03 9.460e-03 7.020e-03 
*LOADS
*RC spi_master/U172:D0 1.328e-04
*RC U416:B 1.328e-04
*RC o_ADS1292_REG_DATA_OUT_reg_3_:D 1.328e-04
*END

*R_NET w_spi_data_out\[2\] 1.404e-02
*DRIVER spi_master/o_RX_Byte_reg_2_:Q
*CELL fd4qd1_hd
*C2_R1_C1 7.020e-03 9.460e-03 7.020e-03 
*LOADS
*RC spi_master/U169:D0 1.328e-04
*RC U415:B 1.328e-04
*RC o_ADS1292_REG_DATA_OUT_reg_2_:D 1.328e-04
*END

*R_NET w_spi_data_out\[1\] 1.404e-02
*DRIVER spi_master/o_RX_Byte_reg_1_:Q
*CELL fd4qd1_hd
*C2_R1_C1 7.020e-03 9.460e-03 7.020e-03 
*LOADS
*RC spi_master/U157:D0 1.328e-04
*RC U414:B 1.328e-04
*RC o_ADS1292_REG_DATA_OUT_reg_1_:D 1.328e-04
*END

*R_NET w_spi_data_out\[0\] 1.404e-02
*DRIVER spi_master/o_RX_Byte_reg_0_:Q
*CELL fd4qd1_hd
*C2_R1_C1 7.020e-03 9.460e-03 7.020e-03 
*LOADS
*RC spi_master/U163:D0 1.328e-04
*RC U413:B 1.328e-04
*RC o_ADS1292_REG_DATA_OUT_reg_0_:D 1.328e-04
*END

*R_NET r_idle_mode 1.023e-02
*DRIVER r_idle_mode_reg:Q
*CELL fd4qd1_hd
*C2_R1_C1 5.115e-03 9.100e-03 5.115e-03 
*LOADS
*RC U631:A 9.309e-05
*RC U790:A 9.309e-05
*END

*R_NET r_syscmd_mode 1.035e-02
*DRIVER r_syscmd_mode_reg:Q
*CELL fd4qd1_hd
*C2_R1_C1 5.175e-03 9.100e-03 5.175e-03 
*LOADS
*RC U718:B 9.419e-05
*RC U793:A 9.419e-05
*END

*R_NET r_wreg_mode 1.646e-02
*DRIVER r_wreg_mode_reg:Q
*CELL fd4qd1_hd
*C2_R1_C1 8.230e-03 9.460e-03 8.230e-03 
*LOADS
*RC U639:C 1.557e-04
*RC U730:A 1.557e-04
*RC U794:B 1.557e-04
*END

*R_NET r_rreg_mode 1.700e-02
*DRIVER r_rreg_mode_reg:Q
*CELL fd4qd1_hd
*C2_R1_C1 8.500e-03 9.460e-03 8.500e-03 
*LOADS
*RC U627:C 1.608e-04
*RC U727:A 1.608e-04
*RC U794:A 1.608e-04
*END

*R_NET r_rdatac_mode 2.226e-02
*DRIVER r_rdatac_mode_reg:Q
*CELL fd4qd1_hd
*C2_R1_C1 1.113e-02 1.094e-02 1.113e-02 
*LOADS
*RC U412:A 2.435e-04
*RC U620:A 2.435e-04
*RC U713:C 2.435e-04
*RC U791:A 2.435e-04
*END

*R_NET r_sdatac_mode 1.646e-02
*DRIVER r_sdatac_mode_reg:Q
*CELL fd4qd1_hd
*C2_R1_C1 8.230e-03 9.460e-03 8.230e-03 
*LOADS
*RC U612:A 1.557e-04
*RC U740:A 1.557e-04
*RC U801:A 1.557e-04
*END
