*SPEF "IEEE 1481-1999"
*DESIGN "ads1292_controller"
*DATE "Wed Jun 17 12:50:57 2020"
*VENDOR "SYNOPSYS INC"
*PROGRAM "Synopsys Design Compiler cmos"
*VERSION "F-2011.09-SP5-3"
*DESIGN_FLOW "SYNTHESIS"
*DIVIDER /
*DELIMITER :
*BUS_DELIMITER []
*T_UNIT 1.0 NS
*C_UNIT 1.0 PF
*R_UNIT 1.0 KOHM
*L_UNIT 1.0 HENRY

*PORTS

o_ADS1292_DATA_OUT\[23\] O *L 1.035e-02 *S 1.237e-01 1.056e-01 
o_ADS1292_DATA_OUT\[22\] O *L 1.035e-02 *S 1.237e-01 1.056e-01 
o_ADS1292_DATA_OUT\[21\] O *L 1.035e-02 *S 1.237e-01 1.056e-01 
o_ADS1292_DATA_OUT\[20\] O *L 1.035e-02 *S 1.237e-01 1.056e-01 
o_ADS1292_DATA_OUT\[19\] O *L 1.035e-02 *S 1.237e-01 1.056e-01 
o_ADS1292_DATA_OUT\[18\] O *L 1.035e-02 *S 1.237e-01 1.056e-01 
o_ADS1292_DATA_OUT\[17\] O *L 1.035e-02 *S 1.237e-01 1.056e-01 
o_ADS1292_DATA_OUT\[16\] O *L 1.035e-02 *S 1.237e-01 1.056e-01 
o_ADS1292_DATA_OUT\[15\] O *L 1.035e-02 *S 1.237e-01 1.056e-01 
o_ADS1292_DATA_OUT\[14\] O *L 1.035e-02 *S 1.237e-01 1.056e-01 
o_ADS1292_DATA_OUT\[13\] O *L 1.035e-02 *S 1.237e-01 1.056e-01 
o_ADS1292_DATA_OUT\[12\] O *L 1.035e-02 *S 1.237e-01 1.056e-01 
o_ADS1292_DATA_OUT\[11\] O *L 1.035e-02 *S 1.237e-01 1.056e-01 
o_ADS1292_DATA_OUT\[10\] O *L 1.035e-02 *S 1.237e-01 1.056e-01 
o_ADS1292_DATA_OUT\[9\] O *L 1.035e-02 *S 1.237e-01 1.056e-01 
o_ADS1292_DATA_OUT\[8\] O *L 1.035e-02 *S 1.237e-01 1.056e-01 
o_ADS1292_DATA_OUT\[7\] O *L 1.035e-02 *S 1.237e-01 1.056e-01 
o_ADS1292_DATA_OUT\[6\] O *L 1.035e-02 *S 1.237e-01 1.056e-01 
o_ADS1292_DATA_OUT\[5\] O *L 1.035e-02 *S 1.237e-01 1.056e-01 
o_ADS1292_DATA_OUT\[4\] O *L 1.035e-02 *S 1.237e-01 1.056e-01 
o_ADS1292_DATA_OUT\[3\] O *L 1.035e-02 *S 1.237e-01 1.056e-01 
o_ADS1292_DATA_OUT\[2\] O *L 1.035e-02 *S 1.237e-01 1.056e-01 
o_ADS1292_DATA_OUT\[1\] O *L 1.035e-02 *S 1.237e-01 1.056e-01 
o_ADS1292_DATA_OUT\[0\] O *L 1.035e-02 *S 1.237e-01 1.056e-01 
i_ADS1292_CONTROL\[2\] I *L 0.000e+00 *S 0.000e+00 0.000e+00 
i_ADS1292_CONTROL\[1\] I *L 0.000e+00 *S 0.000e+00 0.000e+00 
i_ADS1292_CONTROL\[0\] I *L 0.000e+00 *S 0.000e+00 0.000e+00 
i_ADS1292_REG_ADDR\[7\] I *L 0.000e+00 *S 0.000e+00 0.000e+00 
i_ADS1292_REG_ADDR\[6\] I *L 0.000e+00 *S 0.000e+00 0.000e+00 
i_ADS1292_REG_ADDR\[5\] I *L 0.000e+00 *S 0.000e+00 0.000e+00 
i_ADS1292_REG_ADDR\[4\] I *L 0.000e+00 *S 0.000e+00 0.000e+00 
i_ADS1292_REG_ADDR\[3\] I *L 0.000e+00 *S 0.000e+00 0.000e+00 
i_ADS1292_REG_ADDR\[2\] I *L 0.000e+00 *S 0.000e+00 0.000e+00 
i_ADS1292_REG_ADDR\[1\] I *L 0.000e+00 *S 0.000e+00 0.000e+00 
i_ADS1292_REG_ADDR\[0\] I *L 0.000e+00 *S 0.000e+00 0.000e+00 
i_ADS1292_DATA_IN\[7\] I *L 0.000e+00 *S 0.000e+00 0.000e+00 
i_ADS1292_DATA_IN\[6\] I *L 0.000e+00 *S 0.000e+00 0.000e+00 
i_ADS1292_DATA_IN\[5\] I *L 0.000e+00 *S 0.000e+00 0.000e+00 
i_ADS1292_DATA_IN\[4\] I *L 0.000e+00 *S 0.000e+00 0.000e+00 
i_ADS1292_DATA_IN\[3\] I *L 0.000e+00 *S 0.000e+00 0.000e+00 
i_ADS1292_DATA_IN\[2\] I *L 0.000e+00 *S 0.000e+00 0.000e+00 
i_ADS1292_DATA_IN\[1\] I *L 0.000e+00 *S 0.000e+00 0.000e+00 
i_ADS1292_DATA_IN\[0\] I *L 0.000e+00 *S 0.000e+00 0.000e+00 
o_ADS1292_REG_DATA_OUT\[7\] O *L 1.035e-02 *S 1.237e-01 1.056e-01 
o_ADS1292_REG_DATA_OUT\[6\] O *L 1.035e-02 *S 1.237e-01 1.056e-01 
o_ADS1292_REG_DATA_OUT\[5\] O *L 1.035e-02 *S 1.237e-01 1.056e-01 
o_ADS1292_REG_DATA_OUT\[4\] O *L 1.035e-02 *S 1.237e-01 1.056e-01 
o_ADS1292_REG_DATA_OUT\[3\] O *L 1.035e-02 *S 1.237e-01 1.056e-01 
o_ADS1292_REG_DATA_OUT\[2\] O *L 1.035e-02 *S 1.237e-01 1.056e-01 
o_ADS1292_REG_DATA_OUT\[1\] O *L 1.035e-02 *S 1.237e-01 1.056e-01 
o_ADS1292_REG_DATA_OUT\[0\] O *L 1.035e-02 *S 1.237e-01 1.056e-01 
o_ADS1292_INIT_SET O *L 1.035e-02 *S 1.574e-01 1.974e-01 
o_ADS1292_DATA_VALID O *L 1.035e-02 *S 1.574e-01 1.974e-01 
o_ADS1292_BUSY O *L 1.035e-02 *S 1.617e-01 2.017e-01 
o_SPI_CLK O *L 1.035e-02 *S 1.249e-01 1.641e-01 
i_SPI_MISO I *L 0.000e+00 *S 0.000e+00 0.000e+00 
o_SPI_MOSI O *L 1.035e-02 *S 1.605e-01 2.005e-01 
i_ADS1292_DRDY I *L 0.000e+00 *S 0.000e+00 0.000e+00 
o_ADS1292_RESET O *L 1.035e-02 *S 1.679e-01 1.275e-01 
o_ADS1292_START O *L 1.035e-02 *S 1.618e-01 2.018e-01 
o_SPI_CSN O *L 1.035e-02 *S 1.687e-01 1.281e-01 
i_CLK I *L 0.000e+00 *S 0.000e+00 0.000e+00 
i_RSTN I *L 0.000e+00 *S 0.000e+00 0.000e+00 

*R_NET o_ADS1292_DATA_OUT\[23\] 1.350e-02
*DRIVER o_ADS1292_DATA_OUT_reg_23_:Q
*CELL fds2eqd1_hd
*C2_R1_C1 6.750e-03 7.370e-03 6.750e-03 
*LOADS
*RC o_ADS1292_DATA_OUT\[23\] 9.950e-05
*END

*R_NET o_ADS1292_DATA_OUT\[22\] 1.350e-02
*DRIVER o_ADS1292_DATA_OUT_reg_22_:Q
*CELL fds2eqd1_hd
*C2_R1_C1 6.750e-03 7.370e-03 6.750e-03 
*LOADS
*RC o_ADS1292_DATA_OUT\[22\] 9.950e-05
*END

*R_NET o_ADS1292_DATA_OUT\[21\] 1.350e-02
*DRIVER o_ADS1292_DATA_OUT_reg_21_:Q
*CELL fds2eqd1_hd
*C2_R1_C1 6.750e-03 7.370e-03 6.750e-03 
*LOADS
*RC o_ADS1292_DATA_OUT\[21\] 9.950e-05
*END

*R_NET o_ADS1292_DATA_OUT\[20\] 1.350e-02
*DRIVER o_ADS1292_DATA_OUT_reg_20_:Q
*CELL fds2eqd1_hd
*C2_R1_C1 6.750e-03 7.370e-03 6.750e-03 
*LOADS
*RC o_ADS1292_DATA_OUT\[20\] 9.950e-05
*END

*R_NET o_ADS1292_DATA_OUT\[19\] 1.350e-02
*DRIVER o_ADS1292_DATA_OUT_reg_19_:Q
*CELL fds2eqd1_hd
*C2_R1_C1 6.750e-03 7.370e-03 6.750e-03 
*LOADS
*RC o_ADS1292_DATA_OUT\[19\] 9.950e-05
*END

*R_NET o_ADS1292_DATA_OUT\[18\] 1.350e-02
*DRIVER o_ADS1292_DATA_OUT_reg_18_:Q
*CELL fds2eqd1_hd
*C2_R1_C1 6.750e-03 7.370e-03 6.750e-03 
*LOADS
*RC o_ADS1292_DATA_OUT\[18\] 9.950e-05
*END

*R_NET o_ADS1292_DATA_OUT\[17\] 1.350e-02
*DRIVER o_ADS1292_DATA_OUT_reg_17_:Q
*CELL fds2eqd1_hd
*C2_R1_C1 6.750e-03 7.370e-03 6.750e-03 
*LOADS
*RC o_ADS1292_DATA_OUT\[17\] 9.950e-05
*END

*R_NET o_ADS1292_DATA_OUT\[16\] 1.350e-02
*DRIVER o_ADS1292_DATA_OUT_reg_16_:Q
*CELL fds2eqd1_hd
*C2_R1_C1 6.750e-03 7.370e-03 6.750e-03 
*LOADS
*RC o_ADS1292_DATA_OUT\[16\] 9.950e-05
*END

*R_NET o_ADS1292_DATA_OUT\[15\] 1.350e-02
*DRIVER o_ADS1292_DATA_OUT_reg_15_:Q
*CELL fds2eqd1_hd
*C2_R1_C1 6.750e-03 7.370e-03 6.750e-03 
*LOADS
*RC o_ADS1292_DATA_OUT\[15\] 9.950e-05
*END

*R_NET o_ADS1292_DATA_OUT\[14\] 1.350e-02
*DRIVER o_ADS1292_DATA_OUT_reg_14_:Q
*CELL fds2eqd1_hd
*C2_R1_C1 6.750e-03 7.370e-03 6.750e-03 
*LOADS
*RC o_ADS1292_DATA_OUT\[14\] 9.950e-05
*END

*R_NET o_ADS1292_DATA_OUT\[13\] 1.350e-02
*DRIVER o_ADS1292_DATA_OUT_reg_13_:Q
*CELL fds2eqd1_hd
*C2_R1_C1 6.750e-03 7.370e-03 6.750e-03 
*LOADS
*RC o_ADS1292_DATA_OUT\[13\] 9.950e-05
*END

*R_NET o_ADS1292_DATA_OUT\[12\] 1.350e-02
*DRIVER o_ADS1292_DATA_OUT_reg_12_:Q
*CELL fds2eqd1_hd
*C2_R1_C1 6.750e-03 7.370e-03 6.750e-03 
*LOADS
*RC o_ADS1292_DATA_OUT\[12\] 9.950e-05
*END

*R_NET o_ADS1292_DATA_OUT\[11\] 1.350e-02
*DRIVER o_ADS1292_DATA_OUT_reg_11_:Q
*CELL fds2eqd1_hd
*C2_R1_C1 6.750e-03 7.370e-03 6.750e-03 
*LOADS
*RC o_ADS1292_DATA_OUT\[11\] 9.950e-05
*END

*R_NET o_ADS1292_DATA_OUT\[10\] 1.350e-02
*DRIVER o_ADS1292_DATA_OUT_reg_10_:Q
*CELL fds2eqd1_hd
*C2_R1_C1 6.750e-03 7.370e-03 6.750e-03 
*LOADS
*RC o_ADS1292_DATA_OUT\[10\] 9.950e-05
*END

*R_NET o_ADS1292_DATA_OUT\[9\] 1.350e-02
*DRIVER o_ADS1292_DATA_OUT_reg_9_:Q
*CELL fds2eqd1_hd
*C2_R1_C1 6.750e-03 7.370e-03 6.750e-03 
*LOADS
*RC o_ADS1292_DATA_OUT\[9\] 9.950e-05
*END

*R_NET o_ADS1292_DATA_OUT\[8\] 1.350e-02
*DRIVER o_ADS1292_DATA_OUT_reg_8_:Q
*CELL fds2eqd1_hd
*C2_R1_C1 6.750e-03 7.370e-03 6.750e-03 
*LOADS
*RC o_ADS1292_DATA_OUT\[8\] 9.950e-05
*END

*R_NET o_ADS1292_DATA_OUT\[7\] 1.350e-02
*DRIVER o_ADS1292_DATA_OUT_reg_7_:Q
*CELL fds2eqd1_hd
*C2_R1_C1 6.750e-03 7.370e-03 6.750e-03 
*LOADS
*RC o_ADS1292_DATA_OUT\[7\] 9.950e-05
*END

*R_NET o_ADS1292_DATA_OUT\[6\] 1.350e-02
*DRIVER o_ADS1292_DATA_OUT_reg_6_:Q
*CELL fds2eqd1_hd
*C2_R1_C1 6.750e-03 7.370e-03 6.750e-03 
*LOADS
*RC o_ADS1292_DATA_OUT\[6\] 9.950e-05
*END

*R_NET o_ADS1292_DATA_OUT\[5\] 1.350e-02
*DRIVER o_ADS1292_DATA_OUT_reg_5_:Q
*CELL fds2eqd1_hd
*C2_R1_C1 6.750e-03 7.370e-03 6.750e-03 
*LOADS
*RC o_ADS1292_DATA_OUT\[5\] 9.950e-05
*END

*R_NET o_ADS1292_DATA_OUT\[4\] 1.350e-02
*DRIVER o_ADS1292_DATA_OUT_reg_4_:Q
*CELL fds2eqd1_hd
*C2_R1_C1 6.750e-03 7.370e-03 6.750e-03 
*LOADS
*RC o_ADS1292_DATA_OUT\[4\] 9.950e-05
*END

*R_NET o_ADS1292_DATA_OUT\[3\] 1.350e-02
*DRIVER o_ADS1292_DATA_OUT_reg_3_:Q
*CELL fds2eqd1_hd
*C2_R1_C1 6.750e-03 7.370e-03 6.750e-03 
*LOADS
*RC o_ADS1292_DATA_OUT\[3\] 9.950e-05
*END

*R_NET o_ADS1292_DATA_OUT\[2\] 1.350e-02
*DRIVER o_ADS1292_DATA_OUT_reg_2_:Q
*CELL fds2eqd1_hd
*C2_R1_C1 6.750e-03 7.370e-03 6.750e-03 
*LOADS
*RC o_ADS1292_DATA_OUT\[2\] 9.950e-05
*END

*R_NET o_ADS1292_DATA_OUT\[1\] 1.350e-02
*DRIVER o_ADS1292_DATA_OUT_reg_1_:Q
*CELL fds2eqd1_hd
*C2_R1_C1 6.750e-03 7.370e-03 6.750e-03 
*LOADS
*RC o_ADS1292_DATA_OUT\[1\] 9.950e-05
*END

*R_NET o_ADS1292_DATA_OUT\[0\] 1.350e-02
*DRIVER o_ADS1292_DATA_OUT_reg_0_:Q
*CELL fds2eqd1_hd
*C2_R1_C1 6.750e-03 7.370e-03 6.750e-03 
*LOADS
*RC o_ADS1292_DATA_OUT\[0\] 9.950e-05
*END

*R_NET i_ADS1292_CONTROL\[2\] 3.786e-02
*DRIVER i_ADS1292_CONTROL\[2\]
*CELL NULL
*C2_R1_C1 1.893e-02 1.715e-02 1.893e-02 
*LOADS
*RC U422:B 6.493e-04
*RC U456:B 6.493e-04
*RC U511:C 6.493e-04
*RC U513:D 6.493e-04
*RC U515:D 6.493e-04
*RC U523:A 6.493e-04
*RC U524:C 6.493e-04
*END

*R_NET i_ADS1292_CONTROL\[1\] 3.786e-02
*DRIVER i_ADS1292_CONTROL\[1\]
*CELL NULL
*C2_R1_C1 1.893e-02 1.715e-02 1.893e-02 
*LOADS
*RC U423:B 6.493e-04
*RC U451:B 6.493e-04
*RC U511:D 6.493e-04
*RC U513:C 6.493e-04
*RC U515:C 6.493e-04
*RC U522:A 6.493e-04
*RC U524:D 6.493e-04
*END

*R_NET i_ADS1292_CONTROL\[0\] 2.175e-02
*DRIVER i_ADS1292_CONTROL\[0\]
*CELL NULL
*C2_R1_C1 1.087e-02 1.094e-02 1.087e-02 
*LOADS
*RC U451:A 2.379e-04
*RC U456:A 2.379e-04
*RC U520:B 2.379e-04
*RC U525:A 2.379e-04
*END

*R_NET i_ADS1292_REG_ADDR\[7\] 4.780e-03
*DRIVER i_ADS1292_REG_ADDR\[7\]
*CELL NULL
*C2_R1_C1 2.390e-03 7.370e-03 2.390e-03 
*LOADS
*RC U406:B 3.523e-05
*END

*R_NET i_ADS1292_REG_ADDR\[6\] 4.780e-03
*DRIVER i_ADS1292_REG_ADDR\[6\]
*CELL NULL
*C2_R1_C1 2.390e-03 7.370e-03 2.390e-03 
*LOADS
*RC U405:B 3.523e-05
*END

*R_NET i_ADS1292_REG_ADDR\[5\] 4.780e-03
*DRIVER i_ADS1292_REG_ADDR\[5\]
*CELL NULL
*C2_R1_C1 2.390e-03 7.370e-03 2.390e-03 
*LOADS
*RC U404:B 3.523e-05
*END

*R_NET i_ADS1292_REG_ADDR\[4\] 9.680e-03
*DRIVER i_ADS1292_REG_ADDR\[4\]
*CELL NULL
*C2_R1_C1 4.840e-03 9.100e-03 4.840e-03 
*LOADS
*RC U420:B 8.809e-05
*RC U556:C 8.809e-05
*END

*R_NET i_ADS1292_REG_ADDR\[3\] 5.190e-03
*DRIVER i_ADS1292_REG_ADDR\[3\]
*CELL NULL
*C2_R1_C1 2.595e-03 7.370e-03 2.595e-03 
*LOADS
*RC U354:B 3.825e-05
*END

*R_NET i_ADS1292_REG_ADDR\[2\] 5.190e-03
*DRIVER i_ADS1292_REG_ADDR\[2\]
*CELL NULL
*C2_R1_C1 2.595e-03 7.370e-03 2.595e-03 
*LOADS
*RC U353:B 3.825e-05
*END

*R_NET i_ADS1292_REG_ADDR\[1\] 8.780e-03
*DRIVER i_ADS1292_REG_ADDR\[1\]
*CELL NULL
*C2_R1_C1 4.390e-03 9.100e-03 4.390e-03 
*LOADS
*RC U403:B 7.990e-05
*RC U419:B 7.990e-05
*END

*R_NET i_ADS1292_REG_ADDR\[0\] 5.190e-03
*DRIVER i_ADS1292_REG_ADDR\[0\]
*CELL NULL
*C2_R1_C1 2.595e-03 7.370e-03 2.595e-03 
*LOADS
*RC U466:B 3.825e-05
*END

*R_NET i_ADS1292_DATA_IN\[7\] 4.780e-03
*DRIVER i_ADS1292_DATA_IN\[7\]
*CELL NULL
*C2_R1_C1 2.390e-03 7.370e-03 2.390e-03 
*LOADS
*RC U418:B 3.523e-05
*END

*R_NET i_ADS1292_DATA_IN\[6\] 4.780e-03
*DRIVER i_ADS1292_DATA_IN\[6\]
*CELL NULL
*C2_R1_C1 2.390e-03 7.370e-03 2.390e-03 
*LOADS
*RC U417:B 3.523e-05
*END

*R_NET i_ADS1292_DATA_IN\[5\] 4.780e-03
*DRIVER i_ADS1292_DATA_IN\[5\]
*CELL NULL
*C2_R1_C1 2.390e-03 7.370e-03 2.390e-03 
*LOADS
*RC U416:B 3.523e-05
*END

*R_NET i_ADS1292_DATA_IN\[4\] 4.780e-03
*DRIVER i_ADS1292_DATA_IN\[4\]
*CELL NULL
*C2_R1_C1 2.390e-03 7.370e-03 2.390e-03 
*LOADS
*RC U415:B 3.523e-05
*END

*R_NET i_ADS1292_DATA_IN\[3\] 4.780e-03
*DRIVER i_ADS1292_DATA_IN\[3\]
*CELL NULL
*C2_R1_C1 2.390e-03 7.370e-03 2.390e-03 
*LOADS
*RC U414:B 3.523e-05
*END

*R_NET i_ADS1292_DATA_IN\[2\] 4.780e-03
*DRIVER i_ADS1292_DATA_IN\[2\]
*CELL NULL
*C2_R1_C1 2.390e-03 7.370e-03 2.390e-03 
*LOADS
*RC U413:B 3.523e-05
*END

*R_NET i_ADS1292_DATA_IN\[1\] 4.780e-03
*DRIVER i_ADS1292_DATA_IN\[1\]
*CELL NULL
*C2_R1_C1 2.390e-03 7.370e-03 2.390e-03 
*LOADS
*RC U412:B 3.523e-05
*END

*R_NET i_ADS1292_DATA_IN\[0\] 4.780e-03
*DRIVER i_ADS1292_DATA_IN\[0\]
*CELL NULL
*C2_R1_C1 2.390e-03 7.370e-03 2.390e-03 
*LOADS
*RC U411:B 3.523e-05
*END

*R_NET o_ADS1292_REG_DATA_OUT\[7\] 1.350e-02
*DRIVER o_ADS1292_REG_DATA_OUT_reg_7_:Q
*CELL fds2eqd1_hd
*C2_R1_C1 6.750e-03 7.370e-03 6.750e-03 
*LOADS
*RC o_ADS1292_REG_DATA_OUT\[7\] 9.950e-05
*END

*R_NET o_ADS1292_REG_DATA_OUT\[6\] 1.350e-02
*DRIVER o_ADS1292_REG_DATA_OUT_reg_6_:Q
*CELL fds2eqd1_hd
*C2_R1_C1 6.750e-03 7.370e-03 6.750e-03 
*LOADS
*RC o_ADS1292_REG_DATA_OUT\[6\] 9.950e-05
*END

*R_NET o_ADS1292_REG_DATA_OUT\[5\] 1.350e-02
*DRIVER o_ADS1292_REG_DATA_OUT_reg_5_:Q
*CELL fds2eqd1_hd
*C2_R1_C1 6.750e-03 7.370e-03 6.750e-03 
*LOADS
*RC o_ADS1292_REG_DATA_OUT\[5\] 9.950e-05
*END

*R_NET o_ADS1292_REG_DATA_OUT\[4\] 1.350e-02
*DRIVER o_ADS1292_REG_DATA_OUT_reg_4_:Q
*CELL fds2eqd1_hd
*C2_R1_C1 6.750e-03 7.370e-03 6.750e-03 
*LOADS
*RC o_ADS1292_REG_DATA_OUT\[4\] 9.950e-05
*END

*R_NET o_ADS1292_REG_DATA_OUT\[3\] 1.350e-02
*DRIVER o_ADS1292_REG_DATA_OUT_reg_3_:Q
*CELL fds2eqd1_hd
*C2_R1_C1 6.750e-03 7.370e-03 6.750e-03 
*LOADS
*RC o_ADS1292_REG_DATA_OUT\[3\] 9.950e-05
*END

*R_NET o_ADS1292_REG_DATA_OUT\[2\] 1.350e-02
*DRIVER o_ADS1292_REG_DATA_OUT_reg_2_:Q
*CELL fds2eqd1_hd
*C2_R1_C1 6.750e-03 7.370e-03 6.750e-03 
*LOADS
*RC o_ADS1292_REG_DATA_OUT\[2\] 9.950e-05
*END

*R_NET o_ADS1292_REG_DATA_OUT\[1\] 1.350e-02
*DRIVER o_ADS1292_REG_DATA_OUT_reg_1_:Q
*CELL fds2eqd1_hd
*C2_R1_C1 6.750e-03 7.370e-03 6.750e-03 
*LOADS
*RC o_ADS1292_REG_DATA_OUT\[1\] 9.950e-05
*END

*R_NET o_ADS1292_REG_DATA_OUT\[0\] 1.350e-02
*DRIVER o_ADS1292_REG_DATA_OUT_reg_0_:Q
*CELL fds2eqd1_hd
*C2_R1_C1 6.750e-03 7.370e-03 6.750e-03 
*LOADS
*RC o_ADS1292_REG_DATA_OUT\[0\] 9.950e-05
*END

*R_NET o_ADS1292_INIT_SET 1.740e-02
*DRIVER o_ADS1292_INIT_SET_reg:Q
*CELL fd2qd1_hd
*C2_R1_C1 8.700e-03 9.100e-03 8.700e-03 
*LOADS
*RC U453:C 1.583e-04
*RC o_ADS1292_INIT_SET 1.583e-04
*END

*R_NET o_ADS1292_DATA_VALID 1.740e-02
*DRIVER o_ADS1292_DATA_VALID_reg:Q
*CELL fd2qd1_hd
*C2_R1_C1 8.700e-03 9.100e-03 8.700e-03 
*LOADS
*RC U591:D 1.583e-04
*RC o_ADS1292_DATA_VALID 1.583e-04
*END

*R_NET o_ADS1292_BUSY 1.791e-02
*DRIVER o_ADS1292_BUSY_reg:Q
*CELL fd2qd1_hd
*C2_R1_C1 8.955e-03 9.100e-03 8.955e-03 
*LOADS
*RC U421:B 1.630e-04
*RC o_ADS1292_BUSY 1.630e-04
*END

*R_NET o_SPI_CLK 1.350e-02
*DRIVER spi_master/o_SPI_Clk_reg:Q
*CELL fd2qd1_hd
*C2_R1_C1 6.750e-03 7.370e-03 6.750e-03 
*LOADS
*RC o_SPI_CLK 9.950e-05
*END

*R_NET i_SPI_MISO 4.343e-02
*DRIVER i_SPI_MISO
*CELL NULL
*C2_R1_C1 2.172e-02 2.066e-02 2.172e-02 
*LOADS
*RC spi_master/U183:D1 8.973e-04
*RC spi_master/U180:D1 8.973e-04
*RC spi_master/U177:D1 8.973e-04
*RC spi_master/U174:D1 8.973e-04
*RC spi_master/U171:D1 8.973e-04
*RC spi_master/U168:D1 8.973e-04
*RC spi_master/U165:D1 8.973e-04
*RC spi_master/U162:D1 8.973e-04
*END

*R_NET o_SPI_MOSI 1.777e-02
*DRIVER spi_master/o_SPI_MOSI_reg:Q
*CELL fd2qd1_hd
*C2_R1_C1 8.885e-03 9.100e-03 8.885e-03 
*LOADS
*RC spi_master/U187:D0 1.617e-04
*RC o_SPI_MOSI 1.617e-04
*END

*R_NET i_ADS1292_DRDY 2.723e-02
*DRIVER i_ADS1292_DRDY
*CELL NULL
*C2_R1_C1 1.362e-02 1.549e-02 1.362e-02 
*LOADS
*RC r_ldrdy_reg:D 4.218e-04
*RC U534:B 4.218e-04
*RC U650:A 4.218e-04
*RC U659:A 4.218e-04
*RC U665:B 4.218e-04
*END

*R_NET o_ADS1292_RESET 1.781e-02
*DRIVER o_ADS1292_RESET_reg:Q
*CELL fd3qd1_hd
*C2_R1_C1 8.905e-03 9.100e-03 8.905e-03 
*LOADS
*RC U457:D1 1.621e-04
*RC o_ADS1292_RESET 1.621e-04
*END

*R_NET o_ADS1292_START 1.792e-02
*DRIVER o_ADS1292_START_reg:Q
*CELL fd2qd1_hd
*C2_R1_C1 8.960e-03 9.100e-03 8.960e-03 
*LOADS
*RC U410:A 1.631e-04
*RC o_ADS1292_START 1.631e-04
*END

*R_NET o_SPI_CSN 1.791e-02
*DRIVER o_SPI_CSN_reg:Q
*CELL fd3qd1_hd
*C2_R1_C1 8.955e-03 9.100e-03 8.955e-03 
*LOADS
*RC U458:B 1.630e-04
*RC o_SPI_CSN 1.630e-04
*END

*R_NET i_CLK 4.198e-01
*DRIVER i_CLK
*CELL NULL
*C2_R1_C1 2.099e-01 0.000e+00 2.099e-01 
*LOADS
*RC spi_master/async_rstn_synchronizer/r_ff_reg:CK 0.000e+00
*RC spi_master/async_rstn_synchronizer/o_RSTN_reg:CK 0.000e+00
*RC spi_master/r_RX_Bit_Count_reg_0_:CK 0.000e+00
*RC spi_master/r_SPI_Clk_Edges_reg_0_:CK 0.000e+00
*RC spi_master/r_SPI_Clk_Edges_reg_1_:CK 0.000e+00
*RC spi_master/r_SPI_Clk_Edges_reg_2_:CK 0.000e+00
*RC spi_master/r_SPI_Clk_Edges_reg_3_:CK 0.000e+00
*RC spi_master/r_SPI_Clk_Edges_reg_4_:CK 0.000e+00
*RC spi_master/r_SPI_Clk_Edges_reg_5_:CK 0.000e+00
*RC spi_master/r_SPI_Clk_Edges_reg_6_:CK 0.000e+00
*RC spi_master/r_SPI_Clk_Edges_reg_7_:CK 0.000e+00
*RC spi_master/r_SPI_Clk_Count_reg_0_:CK 0.000e+00
*RC spi_master/r_SPI_Clk_Count_reg_1_:CK 0.000e+00
*RC spi_master/r_SPI_Clk_Count_reg_2_:CK 0.000e+00
*RC spi_master/r_SPI_Clk_Count_reg_3_:CK 0.000e+00
*RC spi_master/r_SPI_Clk_Count_reg_4_:CK 0.000e+00
*RC spi_master/r_SPI_Clk_Count_reg_5_:CK 0.000e+00
*RC spi_master/r_SPI_Clk_Count_reg_6_:CK 0.000e+00
*RC spi_master/r_SPI_Clk_Count_reg_7_:CK 0.000e+00
*RC spi_master/r_SPI_Clk_Count_reg_8_:CK 0.000e+00
*RC spi_master/r_SPI_Clk_Count_reg_9_:CK 0.000e+00
*RC spi_master/r_SPI_Clk_Count_reg_10_:CK 0.000e+00
*RC spi_master/r_SPI_Clk_Count_reg_11_:CK 0.000e+00
*RC spi_master/r_SPI_Clk_Count_reg_12_:CK 0.000e+00
*RC spi_master/r_SPI_Clk_Count_reg_13_:CK 0.000e+00
*RC spi_master/r_SPI_Clk_reg:CK 0.000e+00
*RC spi_master/r_Leading_Edge_reg:CK 0.000e+00
*RC spi_master/r_Trailing_Edge_reg:CK 0.000e+00
*RC spi_master/r_TX_Byte_reg_0_:CK 0.000e+00
*RC spi_master/r_TX_Byte_reg_1_:CK 0.000e+00
*RC spi_master/r_TX_Byte_reg_2_:CK 0.000e+00
*RC spi_master/r_TX_Byte_reg_3_:CK 0.000e+00
*RC spi_master/r_TX_Byte_reg_4_:CK 0.000e+00
*RC spi_master/r_TX_Byte_reg_5_:CK 0.000e+00
*RC spi_master/r_TX_Byte_reg_6_:CK 0.000e+00
*RC spi_master/r_TX_Byte_reg_7_:CK 0.000e+00
*RC spi_master/o_TX_Ready_reg:CK 0.000e+00
*RC spi_master/o_RX_Byte_reg_0_:CK 0.000e+00
*RC spi_master/o_RX_Byte_reg_1_:CK 0.000e+00
*RC spi_master/o_RX_Byte_reg_2_:CK 0.000e+00
*RC spi_master/o_RX_Byte_reg_3_:CK 0.000e+00
*RC spi_master/o_RX_Byte_reg_4_:CK 0.000e+00
*RC spi_master/o_RX_Byte_reg_5_:CK 0.000e+00
*RC spi_master/o_RX_Byte_reg_6_:CK 0.000e+00
*RC spi_master/o_RX_Byte_reg_7_:CK 0.000e+00
*RC spi_master/o_RX_DV_reg:CK 0.000e+00
*RC spi_master/o_SPI_Clk_reg:CK 0.000e+00
*RC spi_master/o_SPI_MOSI_reg:CK 0.000e+00
*RC spi_master/r_RX_Bit_Count_reg_2_:CK 0.000e+00
*RC spi_master/r_RX_Bit_Count_reg_1_:CK 0.000e+00
*RC spi_master/r_TX_Bit_Count_reg_2_:CK 0.000e+00
*RC spi_master/r_TX_Bit_Count_reg_1_:CK 0.000e+00
*RC spi_master/r_TX_Bit_Count_reg_0_:CK 0.000e+00
*RC r_clk_counter_reg_31_:CK 0.000e+00
*RC r_clk_counter_reg_30_:CK 0.000e+00
*RC r_clk_counter_reg_29_:CK 0.000e+00
*RC r_clk_counter_reg_28_:CK 0.000e+00
*RC r_clk_counter_reg_27_:CK 0.000e+00
*RC r_clk_counter_reg_26_:CK 0.000e+00
*RC r_clk_counter_reg_25_:CK 0.000e+00
*RC r_clk_counter_reg_24_:CK 0.000e+00
*RC r_clk_counter_reg_23_:CK 0.000e+00
*RC r_clk_counter_reg_22_:CK 0.000e+00
*RC r_data_counter_reg_3_:CK 0.000e+00
*RC r_clk_counter_reg_21_:CK 0.000e+00
*RC r_data_counter_reg_2_:CK 0.000e+00
*RC r_data_counter_reg_1_:CK 0.000e+00
*RC r_clk_counter_reg_20_:CK 0.000e+00
*RC r_ads_command_reg_4_:CK 0.000e+00
*RC r_ads_command_reg_2_:CK 0.000e+00
*RC r_ads_command_reg_3_:CK 0.000e+00
*RC r_data_counter_reg_0_:CK 0.000e+00
*RC r_clk_counter_reg_0_:CK 0.000e+00
*RC r_clk_counter_reg_1_:CK 0.000e+00
*RC r_clk_counter_reg_2_:CK 0.000e+00
*RC r_clk_counter_reg_3_:CK 0.000e+00
*RC r_clk_counter_reg_4_:CK 0.000e+00
*RC r_clk_counter_reg_5_:CK 0.000e+00
*RC r_clk_counter_reg_6_:CK 0.000e+00
*RC r_clk_counter_reg_7_:CK 0.000e+00
*RC r_clk_counter_reg_8_:CK 0.000e+00
*RC r_clk_counter_reg_9_:CK 0.000e+00
*RC r_clk_counter_reg_10_:CK 0.000e+00
*RC r_clk_counter_reg_11_:CK 0.000e+00
*RC r_clk_counter_reg_12_:CK 0.000e+00
*RC r_clk_counter_reg_13_:CK 0.000e+00
*RC r_clk_counter_reg_14_:CK 0.000e+00
*RC r_clk_counter_reg_15_:CK 0.000e+00
*RC r_clk_counter_reg_16_:CK 0.000e+00
*RC r_clk_counter_reg_17_:CK 0.000e+00
*RC r_clk_counter_reg_18_:CK 0.000e+00
*RC r_clk_counter_reg_19_:CK 0.000e+00
*RC r_ads_command_reg_1_:CK 0.000e+00
*RC r_ads_command_reg_5_:CK 0.000e+00
*RC r_ads_command_reg_6_:CK 0.000e+00
*RC r_ads_command_reg_7_:CK 0.000e+00
*RC r_ads_command_reg_0_:CK 0.000e+00
*RC r_pstate_reg_6_:CK 0.000e+00
*RC o_ADS1292_DATA_VALID_reg:CK 0.000e+00
*RC r_pstate_reg_5_:CK 0.000e+00
*RC r_pstate_reg_4_:CK 0.000e+00
*RC r_drdy_edge_counter_reg_1_:CK 0.000e+00
*RC r_drdy_edge_counter_reg_0_:CK 0.000e+00
*RC o_ADS1292_START_reg:CK 0.000e+00
*RC r_idle_mode_reg:CK 0.000e+00
*RC r_syscmd_mode_reg:CK 0.000e+00
*RC r_pstate_reg_0_:CK 0.000e+00
*RC r_ads_reg_addr_reg_0_:CK 0.000e+00
*RC r_ads_reg_addr_reg_2_:CK 0.000e+00
*RC r_ads_reg_addr_reg_3_:CK 0.000e+00
*RC r_ads_data_in_reg_0_:CK 0.000e+00
*RC r_ads_data_in_reg_1_:CK 0.000e+00
*RC r_ads_data_in_reg_2_:CK 0.000e+00
*RC r_ads_data_in_reg_3_:CK 0.000e+00
*RC r_ads_data_in_reg_4_:CK 0.000e+00
*RC r_ads_data_in_reg_5_:CK 0.000e+00
*RC r_ads_data_in_reg_6_:CK 0.000e+00
*RC r_ads_data_in_reg_7_:CK 0.000e+00
*RC r_ads_reg_addr_reg_1_:CK 0.000e+00
*RC r_ads_reg_addr_reg_4_:CK 0.000e+00
*RC o_ADS1292_BUSY_reg:CK 0.000e+00
*RC r_spi_data_in_reg_7_:CK 0.000e+00
*RC r_pstate_reg_2_:CK 0.000e+00
*RC r_pstate_reg_1_:CK 0.000e+00
*RC r_rdatac_mode_reg:CK 0.000e+00
*RC r_wreg_mode_reg:CK 0.000e+00
*RC r_spi_data_in_reg_0_:CK 0.000e+00
*RC r_spi_data_in_reg_1_:CK 0.000e+00
*RC r_spi_data_in_reg_2_:CK 0.000e+00
*RC r_spi_data_in_reg_3_:CK 0.000e+00
*RC r_spi_data_in_reg_4_:CK 0.000e+00
*RC r_spi_data_in_reg_5_:CK 0.000e+00
*RC r_spi_data_in_reg_6_:CK 0.000e+00
*RC r_ads_data_out_reg_0_:CK 0.000e+00
*RC r_ads_data_out_reg_1_:CK 0.000e+00
*RC r_ads_data_out_reg_2_:CK 0.000e+00
*RC r_ads_data_out_reg_3_:CK 0.000e+00
*RC r_ads_data_out_reg_4_:CK 0.000e+00
*RC r_ads_data_out_reg_5_:CK 0.000e+00
*RC r_ads_data_out_reg_6_:CK 0.000e+00
*RC r_ads_data_out_reg_7_:CK 0.000e+00
*RC r_ads_data_out_reg_8_:CK 0.000e+00
*RC r_ads_data_out_reg_9_:CK 0.000e+00
*RC r_ads_data_out_reg_10_:CK 0.000e+00
*RC r_ads_data_out_reg_11_:CK 0.000e+00
*RC r_ads_data_out_reg_12_:CK 0.000e+00
*RC r_ads_data_out_reg_13_:CK 0.000e+00
*RC r_ads_data_out_reg_14_:CK 0.000e+00
*RC r_ads_data_out_reg_15_:CK 0.000e+00
*RC r_ads_data_out_reg_16_:CK 0.000e+00
*RC r_ads_data_out_reg_17_:CK 0.000e+00
*RC r_ads_data_out_reg_18_:CK 0.000e+00
*RC r_ads_data_out_reg_19_:CK 0.000e+00
*RC r_ads_data_out_reg_20_:CK 0.000e+00
*RC r_ads_data_out_reg_21_:CK 0.000e+00
*RC r_ads_data_out_reg_22_:CK 0.000e+00
*RC r_ads_data_out_reg_23_:CK 0.000e+00
*RC r_rreg_mode_reg:CK 0.000e+00
*RC r_ldrdy_reg:CK 0.000e+00
*RC r_spi_data_in_valid_reg:CK 0.000e+00
*RC o_ADS1292_INIT_SET_reg:CK 0.000e+00
*RC o_ADS1292_DATA_OUT_reg_0_:CK 0.000e+00
*RC o_ADS1292_DATA_OUT_reg_1_:CK 0.000e+00
*RC o_ADS1292_DATA_OUT_reg_2_:CK 0.000e+00
*RC o_ADS1292_DATA_OUT_reg_3_:CK 0.000e+00
*RC o_ADS1292_DATA_OUT_reg_4_:CK 0.000e+00
*RC o_ADS1292_DATA_OUT_reg_5_:CK 0.000e+00
*RC o_ADS1292_DATA_OUT_reg_6_:CK 0.000e+00
*RC o_ADS1292_DATA_OUT_reg_7_:CK 0.000e+00
*RC o_ADS1292_DATA_OUT_reg_8_:CK 0.000e+00
*RC o_ADS1292_DATA_OUT_reg_9_:CK 0.000e+00
*RC o_ADS1292_DATA_OUT_reg_10_:CK 0.000e+00
*RC o_ADS1292_DATA_OUT_reg_11_:CK 0.000e+00
*RC o_ADS1292_DATA_OUT_reg_12_:CK 0.000e+00
*RC o_ADS1292_DATA_OUT_reg_13_:CK 0.000e+00
*RC o_ADS1292_DATA_OUT_reg_14_:CK 0.000e+00
*RC o_ADS1292_DATA_OUT_reg_15_:CK 0.000e+00
*RC o_ADS1292_DATA_OUT_reg_16_:CK 0.000e+00
*RC o_ADS1292_DATA_OUT_reg_17_:CK 0.000e+00
*RC o_ADS1292_DATA_OUT_reg_18_:CK 0.000e+00
*RC o_ADS1292_DATA_OUT_reg_19_:CK 0.000e+00
*RC o_ADS1292_DATA_OUT_reg_20_:CK 0.000e+00
*RC o_ADS1292_DATA_OUT_reg_21_:CK 0.000e+00
*RC o_ADS1292_DATA_OUT_reg_22_:CK 0.000e+00
*RC o_ADS1292_DATA_OUT_reg_23_:CK 0.000e+00
*RC r_lstate_reg_0_:CK 0.000e+00
*RC r_lstate_reg_1_:CK 0.000e+00
*RC r_lstate_reg_2_:CK 0.000e+00
*RC r_lstate_reg_4_:CK 0.000e+00
*RC r_lstate_reg_5_:CK 0.000e+00
*RC r_lstate_reg_6_:CK 0.000e+00
*RC o_ADS1292_REG_DATA_OUT_reg_0_:CK 0.000e+00
*RC o_ADS1292_REG_DATA_OUT_reg_1_:CK 0.000e+00
*RC o_ADS1292_REG_DATA_OUT_reg_2_:CK 0.000e+00
*RC o_ADS1292_REG_DATA_OUT_reg_3_:CK 0.000e+00
*RC o_ADS1292_REG_DATA_OUT_reg_4_:CK 0.000e+00
*RC o_ADS1292_REG_DATA_OUT_reg_5_:CK 0.000e+00
*RC o_ADS1292_REG_DATA_OUT_reg_6_:CK 0.000e+00
*RC o_ADS1292_REG_DATA_OUT_reg_7_:CK 0.000e+00
*RC o_ADS1292_RESET_reg:CK 0.000e+00
*RC o_SPI_CSN_reg:CK 0.000e+00
*RC r_sdatac_mode_reg:CK 0.000e+00
*RC async_rstn_synchronizer/r_ff_reg:CK 0.000e+00
*RC async_rstn_synchronizer/o_RSTN_reg:CK 0.000e+00
*END

*R_NET w_rstn 3.291e-02
*DRIVER async_rstn_synchronizer/o_RSTN_reg:Q
*CELL fd2qd1_hd
*C2_R1_C1 1.646e-02 1.715e-02 1.646e-02 
*LOADS
*RC r_clk_counter_reg_31_:RN 5.644e-04
*RC r_clk_counter_reg_30_:RN 5.644e-04
*RC r_clk_counter_reg_29_:RN 5.644e-04
*RC r_clk_counter_reg_28_:RN 5.644e-04
*RC r_clk_counter_reg_27_:RN 5.644e-04
*RC U602:A 5.644e-04
*RC U603:B 5.644e-04
*END

*R_NET r_spi_data_in\[7\] 9.900e-03
*DRIVER r_spi_data_in_reg_7_:Q
*CELL fd2qd1_hd
*C2_R1_C1 4.950e-03 9.100e-03 4.950e-03 
*LOADS
*RC U576:D 9.009e-05
*RC spi_master/U161:B 9.009e-05
*END

*R_NET r_spi_data_in\[6\] 8.670e-03
*DRIVER r_spi_data_in_reg_6_:Q
*CELL fd2qd1_hd
*C2_R1_C1 4.335e-03 9.100e-03 4.335e-03 
*LOADS
*RC U430:D 7.890e-05
*RC spi_master/U160:B 7.890e-05
*END

*R_NET r_spi_data_in\[5\] 8.670e-03
*DRIVER r_spi_data_in_reg_5_:Q
*CELL fd2qd1_hd
*C2_R1_C1 4.335e-03 9.100e-03 4.335e-03 
*LOADS
*RC U429:D 7.890e-05
*RC spi_master/U159:B 7.890e-05
*END

*R_NET r_spi_data_in\[4\] 8.670e-03
*DRIVER r_spi_data_in_reg_4_:Q
*CELL fd2qd1_hd
*C2_R1_C1 4.335e-03 9.100e-03 4.335e-03 
*LOADS
*RC U428:D 7.890e-05
*RC spi_master/U158:B 7.890e-05
*END

*R_NET r_spi_data_in\[3\] 8.670e-03
*DRIVER r_spi_data_in_reg_3_:Q
*CELL fd2qd1_hd
*C2_R1_C1 4.335e-03 9.100e-03 4.335e-03 
*LOADS
*RC U427:D 7.890e-05
*RC spi_master/U157:B 7.890e-05
*END

*R_NET r_spi_data_in\[2\] 8.670e-03
*DRIVER r_spi_data_in_reg_2_:Q
*CELL fd2qd1_hd
*C2_R1_C1 4.335e-03 9.100e-03 4.335e-03 
*LOADS
*RC U426:D 7.890e-05
*RC spi_master/U156:B 7.890e-05
*END

*R_NET r_spi_data_in\[1\] 8.670e-03
*DRIVER r_spi_data_in_reg_1_:Q
*CELL fd2qd1_hd
*C2_R1_C1 4.335e-03 9.100e-03 4.335e-03 
*LOADS
*RC U425:D 7.890e-05
*RC spi_master/U155:B 7.890e-05
*END

*R_NET r_spi_data_in\[0\] 8.670e-03
*DRIVER r_spi_data_in_reg_0_:Q
*CELL fd2qd1_hd
*C2_R1_C1 4.335e-03 9.100e-03 4.335e-03 
*LOADS
*RC U424:D 7.890e-05
*RC spi_master/U154:B 7.890e-05
*END

*R_NET r_spi_data_in_valid 5.762e-02
*DRIVER r_spi_data_in_valid_reg:Q
*CELL fd2qd1_hd
*C2_R1_C1 2.881e-02 2.188e-02 2.881e-02 
*LOADS
*RC U580:A 1.261e-03
*RC spi_master/U210:B 1.261e-03
*RC spi_master/U161:A 1.261e-03
*RC spi_master/U160:A 1.261e-03
*RC spi_master/U159:A 1.261e-03
*RC spi_master/U158:A 1.261e-03
*RC spi_master/U157:A 1.261e-03
*RC spi_master/U156:A 1.261e-03
*RC spi_master/U155:A 1.261e-03
*RC spi_master/U154:A 1.261e-03
*RC spi_master/U59:C 1.261e-03
*RC spi_master/U34:A 1.261e-03
*RC spi_master/U30:A 1.261e-03
*END

*R_NET w_spi_data_in_ready 5.413e-02
*DRIVER spi_master/o_TX_Ready_reg:Q
*CELL fd2qd1_hd
*C2_R1_C1 2.707e-02 2.139e-02 2.707e-02 
*LOADS
*RC spi_master/U215:A 1.158e-03
*RC spi_master/U131:A 1.158e-03
*RC spi_master/U49:C 1.158e-03
*RC spi_master/U48:C 1.158e-03
*RC spi_master/U45:C 1.158e-03
*RC spi_master/U44:C 1.158e-03
*RC U648:C 1.158e-03
*RC U653:A 1.158e-03
*RC U730:A 1.158e-03
*RC U733:A 1.158e-03
*RC U734:C 1.158e-03
*END

*R_NET w_spi_data_out_valid 2.362e-02
*DRIVER spi_master/o_RX_DV_reg:Q
*CELL fd2qd1_hd
*C2_R1_C1 1.181e-02 1.094e-02 1.181e-02 
*LOADS
*RC U361:B 2.584e-04
*RC U649:AN 2.584e-04
*RC U658:C 2.584e-04
*RC U756:A 2.584e-04
*END

*R_NET w_spi_data_out\[7\] 1.404e-02
*DRIVER spi_master/o_RX_Byte_reg_7_:Q
*CELL fd2qd1_hd
*C2_R1_C1 7.020e-03 9.460e-03 7.020e-03 
*LOADS
*RC spi_master/U183:D0 1.328e-04
*RC U438:B 1.328e-04
*RC o_ADS1292_REG_DATA_OUT_reg_7_:D 1.328e-04
*END

*R_NET w_spi_data_out\[6\] 1.404e-02
*DRIVER spi_master/o_RX_Byte_reg_6_:Q
*CELL fd2qd1_hd
*C2_R1_C1 7.020e-03 9.460e-03 7.020e-03 
*LOADS
*RC spi_master/U180:D0 1.328e-04
*RC U437:B 1.328e-04
*RC o_ADS1292_REG_DATA_OUT_reg_6_:D 1.328e-04
*END

*R_NET w_spi_data_out\[5\] 1.404e-02
*DRIVER spi_master/o_RX_Byte_reg_5_:Q
*CELL fd2qd1_hd
*C2_R1_C1 7.020e-03 9.460e-03 7.020e-03 
*LOADS
*RC spi_master/U177:D0 1.328e-04
*RC U436:B 1.328e-04
*RC o_ADS1292_REG_DATA_OUT_reg_5_:D 1.328e-04
*END

*R_NET w_spi_data_out\[4\] 1.404e-02
*DRIVER spi_master/o_RX_Byte_reg_4_:Q
*CELL fd2qd1_hd
*C2_R1_C1 7.020e-03 9.460e-03 7.020e-03 
*LOADS
*RC spi_master/U174:D0 1.328e-04
*RC U435:B 1.328e-04
*RC o_ADS1292_REG_DATA_OUT_reg_4_:D 1.328e-04
*END

*R_NET w_spi_data_out\[3\] 1.404e-02
*DRIVER spi_master/o_RX_Byte_reg_3_:Q
*CELL fd2qd1_hd
*C2_R1_C1 7.020e-03 9.460e-03 7.020e-03 
*LOADS
*RC spi_master/U171:D0 1.328e-04
*RC U434:B 1.328e-04
*RC o_ADS1292_REG_DATA_OUT_reg_3_:D 1.328e-04
*END

*R_NET w_spi_data_out\[2\] 1.404e-02
*DRIVER spi_master/o_RX_Byte_reg_2_:Q
*CELL fd2qd1_hd
*C2_R1_C1 7.020e-03 9.460e-03 7.020e-03 
*LOADS
*RC spi_master/U168:D0 1.328e-04
*RC U433:B 1.328e-04
*RC o_ADS1292_REG_DATA_OUT_reg_2_:D 1.328e-04
*END

*R_NET w_spi_data_out\[1\] 1.404e-02
*DRIVER spi_master/o_RX_Byte_reg_1_:Q
*CELL fd2qd1_hd
*C2_R1_C1 7.020e-03 9.460e-03 7.020e-03 
*LOADS
*RC spi_master/U165:D0 1.328e-04
*RC U432:B 1.328e-04
*RC o_ADS1292_REG_DATA_OUT_reg_1_:D 1.328e-04
*END

*R_NET w_spi_data_out\[0\] 1.404e-02
*DRIVER spi_master/o_RX_Byte_reg_0_:Q
*CELL fd2qd1_hd
*C2_R1_C1 7.020e-03 9.460e-03 7.020e-03 
*LOADS
*RC spi_master/U162:D0 1.328e-04
*RC U431:B 1.328e-04
*RC o_ADS1292_REG_DATA_OUT_reg_0_:D 1.328e-04
*END

*R_NET r_idle_mode 1.025e-02
*DRIVER r_idle_mode_reg:Q
*CELL fd2qd1_hd
*C2_R1_C1 5.125e-03 9.100e-03 5.125e-03 
*LOADS
*RC U517:A 9.328e-05
*RC U756:C 9.328e-05
*END

*R_NET r_syscmd_mode 5.220e-03
*DRIVER r_syscmd_mode_reg:Q
*CELL fd2qd1_hd
*C2_R1_C1 2.610e-03 7.370e-03 2.610e-03 
*LOADS
*RC U759:A 3.847e-05
*END

*R_NET r_wreg_mode 1.008e-02
*DRIVER r_wreg_mode_reg:Q
*CELL fd2qd1_hd
*C2_R1_C1 5.040e-03 9.100e-03 5.040e-03 
*LOADS
*RC U628:A 9.173e-05
*RC U758:B 9.173e-05
*END

*R_NET r_rreg_mode 1.600e-02
*DRIVER r_rreg_mode_reg:Q
*CELL fd2qd1_hd