*SPEF "IEEE 1481-1999"
*DESIGN "converter_i2f"
*DATE "Mon May  4 16:23:52 2020"
*VENDOR "SYNOPSYS INC"
*PROGRAM "Synopsys Design Compiler cmos"
*VERSION "F-2011.09-SP5-3"
*DESIGN_FLOW "SYNTHESIS"
*DIVIDER /
*DELIMITER :
*BUS_DELIMITER []
*T_UNIT 1.0 NS
*C_UNIT 1.0 PF
*R_UNIT 1.0 KOHM
*L_UNIT 1.0 HENRY

*PORTS

i_A\[31\] I *L 0.000e+00 *S 0.000e+00 0.000e+00 
i_A\[30\] I *L 0.000e+00 *S 0.000e+00 0.000e+00 
i_A\[29\] I *L 0.000e+00 *S 0.000e+00 0.000e+00 
i_A\[28\] I *L 0.000e+00 *S 0.000e+00 0.000e+00 
i_A\[27\] I *L 0.000e+00 *S 0.000e+00 0.000e+00 
i_A\[26\] I *L 0.000e+00 *S 0.000e+00 0.000e+00 
i_A\[25\] I *L 0.000e+00 *S 0.000e+00 0.000e+00 
i_A\[24\] I *L 0.000e+00 *S 0.000e+00 0.000e+00 
i_A\[23\] I *L 0.000e+00 *S 0.000e+00 0.000e+00 
i_A\[22\] I *L 0.000e+00 *S 0.000e+00 0.000e+00 
i_A\[21\] I *L 0.000e+00 *S 0.000e+00 0.000e+00 
i_A\[20\] I *L 0.000e+00 *S 0.000e+00 0.000e+00 
i_A\[19\] I *L 0.000e+00 *S 0.000e+00 0.000e+00 
i_A\[18\] I *L 0.000e+00 *S 0.000e+00 0.000e+00 
i_A\[17\] I *L 0.000e+00 *S 0.000e+00 0.000e+00 
i_A\[16\] I *L 0.000e+00 *S 0.000e+00 0.000e+00 
i_A\[15\] I *L 0.000e+00 *S 0.000e+00 0.000e+00 
i_A\[14\] I *L 0.000e+00 *S 0.000e+00 0.000e+00 
i_A\[13\] I *L 0.000e+00 *S 0.000e+00 0.000e+00 
i_A\[12\] I *L 0.000e+00 *S 0.000e+00 0.000e+00 
i_A\[11\] I *L 0.000e+00 *S 0.000e+00 0.000e+00 
i_A\[10\] I *L 0.000e+00 *S 0.000e+00 0.000e+00 
i_A\[9\] I *L 0.000e+00 *S 0.000e+00 0.000e+00 
i_A\[8\] I *L 0.000e+00 *S 0.000e+00 0.000e+00 
i_A\[7\] I *L 0.000e+00 *S 0.000e+00 0.000e+00 
i_A\[6\] I *L 0.000e+00 *S 0.000e+00 0.000e+00 
i_A\[5\] I *L 0.000e+00 *S 0.000e+00 0.000e+00 
i_A\[4\] I *L 0.000e+00 *S 0.000e+00 0.000e+00 
i_A\[3\] I *L 0.000e+00 *S 0.000e+00 0.000e+00 
i_A\[2\] I *L 0.000e+00 *S 0.000e+00 0.000e+00 
i_A\[1\] I *L 0.000e+00 *S 0.000e+00 0.000e+00 
i_A\[0\] I *L 0.000e+00 *S 0.000e+00 0.000e+00 
i_A_STB I *L 0.000e+00 *S 0.000e+00 0.000e+00 
o_A_ACK O *L 0.000e+00 *S 1.226e-01 1.069e-01 
o_Z\[31\] O *L 0.000e+00 *S 3.355e-02 2.976e-02 
o_Z\[30\] O *L 0.000e+00 *S 3.355e-02 2.976e-02 
o_Z\[29\] O *L 0.000e+00 *S 3.355e-02 2.976e-02 
o_Z\[28\] O *L 0.000e+00 *S 3.355e-02 2.976e-02 
o_Z\[27\] O *L 0.000e+00 *S 3.355e-02 2.976e-02 
o_Z\[26\] O *L 0.000e+00 *S 3.355e-02 2.976e-02 
o_Z\[25\] O *L 0.000e+00 *S 3.355e-02 2.976e-02 
o_Z\[24\] O *L 0.000e+00 *S 3.355e-02 2.976e-02 
o_Z\[23\] O *L 0.000e+00 *S 3.355e-02 2.976e-02 
o_Z\[22\] O *L 0.000e+00 *S 3.355e-02 2.976e-02 
o_Z\[21\] O *L 0.000e+00 *S 3.355e-02 2.976e-02 
o_Z\[20\] O *L 0.000e+00 *S 3.355e-02 2.976e-02 
o_Z\[19\] O *L 0.000e+00 *S 3.355e-02 2.976e-02 
o_Z\[18\] O *L 0.000e+00 *S 3.355e-02 2.976e-02 
o_Z\[17\] O *L 0.000e+00 *S 3.355e-02 2.976e-02 
o_Z\[16\] O *L 0.000e+00 *S 3.355e-02 2.976e-02 
o_Z\[15\] O *L 0.000e+00 *S 3.355e-02 2.976e-02 
o_Z\[14\] O *L 0.000e+00 *S 3.355e-02 2.976e-02 
o_Z\[13\] O *L 0.000e+00 *S 3.355e-02 2.976e-02 
o_Z\[12\] O *L 0.000e+00 *S 3.355e-02 2.976e-02 
o_Z\[11\] O *L 0.000e+00 *S 3.355e-02 2.976e-02 
o_Z\[10\] O *L 0.000e+00 *S 3.355e-02 2.976e-02 
o_Z\[9\] O *L 0.000e+00 *S 3.355e-02 2.976e-02 
o_Z\[8\] O *L 0.000e+00 *S 3.355e-02 2.976e-02 
o_Z\[7\] O *L 0.000e+00 *S 3.355e-02 2.976e-02 
o_Z\[6\] O *L 0.000e+00 *S 3.355e-02 2.976e-02 
o_Z\[5\] O *L 0.000e+00 *S 3.355e-02 2.976e-02 
o_Z\[4\] O *L 0.000e+00 *S 3.355e-02 2.976e-02 
o_Z\[3\] O *L 0.000e+00 *S 3.355e-02 2.976e-02 
o_Z\[2\] O *L 0.000e+00 *S 3.355e-02 2.976e-02 
o_Z\[1\] O *L 0.000e+00 *S 3.355e-02 2.976e-02 
o_Z\[0\] O *L 0.000e+00 *S 3.355e-02 2.976e-02 
o_Z_STB O *L 0.000e+00 *S 1.226e-01 1.069e-01 
i_Z_ACK I *L 0.000e+00 *S 0.000e+00 0.000e+00 
i_CLK I *L 0.000e+00 *S 0.000e+00 0.000e+00 
i_RST I *L 0.000e+00 *S 0.000e+00 0.000e+00 

*R_NET i_A\[31\] 4.500e-03
*DRIVER i_A\[31\]
*CELL NULL
*C2_R1_C1 2.250e-03 7.370e-03 2.250e-03 
*LOADS
*RC a_reg_31_:D 3.316e-05
*END

*R_NET i_A\[30\] 4.500e-03
*DRIVER i_A\[30\]
*CELL NULL
*C2_R1_C1 2.250e-03 7.370e-03 2.250e-03 
*LOADS
*RC a_reg_30_:D 3.316e-05
*END

*R_NET i_A\[29\] 4.500e-03
*DRIVER i_A\[29\]
*CELL NULL
*C2_R1_C1 2.250e-03 7.370e-03 2.250e-03 
*LOADS
*RC a_reg_29_:D 3.316e-05
*END

*R_NET i_A\[28\] 4.500e-03
*DRIVER i_A\[28\]
*CELL NULL
*C2_R1_C1 2.250e-03 7.370e-03 2.250e-03 
*LOADS
*RC a_reg_28_:D 3.316e-05
*END

*R_NET i_A\[27\] 4.500e-03
*DRIVER i_A\[27\]
*CELL NULL
*C2_R1_C1 2.250e-03 7.370e-03 2.250e-03 
*LOADS
*RC a_reg_27_:D 3.316e-05
*END

*R_NET i_A\[26\] 4.500e-03
*DRIVER i_A\[26\]
*CELL NULL
*C2_R1_C1 2.250e-03 7.370e-03 2.250e-03 
*LOADS
*RC a_reg_26_:D 3.316e-05
*END

*R_NET i_A\[25\] 4.500e-03
*DRIVER i_A\[25\]
*CELL NULL
*C2_R1_C1 2.250e-03 7.370e-03 2.250e-03 
*LOADS
*RC a_reg_25_:D 3.316e-05
*END

*R_NET i_A\[24\] 4.500e-03
*DRIVER i_A\[24\]
*CELL NULL
*C2_R1_C1 2.250e-03 7.370e-03 2.250e-03 
*LOADS
*RC a_reg_24_:D 3.316e-05
*END

*R_NET i_A\[23\] 4.500e-03
*DRIVER i_A\[23\]
*CELL NULL
*C2_R1_C1 2.250e-03 7.370e-03 2.250e-03 
*LOADS
*RC a_reg_23_:D 3.316e-05
*END

*R_NET i_A\[22\] 4.500e-03
*DRIVER i_A\[22\]
*CELL NULL
*C2_R1_C1 2.250e-03 7.370e-03 2.250e-03 
*LOADS
*RC a_reg_22_:D 3.316e-05
*END

*R_NET i_A\[21\] 4.500e-03
*DRIVER i_A\[21\]
*CELL NULL
*C2_R1_C1 2.250e-03 7.370e-03 2.250e-03 
*LOADS
*RC a_reg_21_:D 3.316e-05
*END

*R_NET i_A\[20\] 4.500e-03
*DRIVER i_A\[20\]
*CELL NULL
*C2_R1_C1 2.250e-03 7.370e-03 2.250e-03 
*LOADS
*RC a_reg_20_:D 3.316e-05
*END

*R_NET i_A\[19\] 4.500e-03
*DRIVER i_A\[19\]
*CELL NULL
*C2_R1_C1 2.250e-03 7.370e-03 2.250e-03 
*LOADS
*RC a_reg_19_:D 3.316e-05
*END

*R_NET i_A\[18\] 4.500e-03
*DRIVER i_A\[18\]
*CELL NULL
*C2_R1_C1 2.250e-03 7.370e-03 2.250e-03 
*LOADS
*RC a_reg_18_:D 3.316e-05
*END

*R_NET i_A\[17\] 4.500e-03
*DRIVER i_A\[17\]
*CELL NULL
*C2_R1_C1 2.250e-03 7.370e-03 2.250e-03 
*LOADS
*RC a_reg_17_:D 3.316e-05
*END

*R_NET i_A\[16\] 4.500e-03
*DRIVER i_A\[16\]
*CELL NULL
*C2_R1_C1 2.250e-03 7.370e-03 2.250e-03 
*LOADS
*RC a_reg_16_:D 3.316e-05
*END

*R_NET i_A\[15\] 4.500e-03
*DRIVER i_A\[15\]
*CELL NULL
*C2_R1_C1 2.250e-03 7.370e-03 2.250e-03 
*LOADS
*RC a_reg_15_:D 3.316e-05
*END

*R_NET i_A\[14\] 4.500e-03
*DRIVER i_A\[14\]
*CELL NULL
*C2_R1_C1 2.250e-03 7.370e-03 2.250e-03 
*LOADS
*RC a_reg_14_:D 3.316e-05
*END

*R_NET i_A\[13\] 4.500e-03
*DRIVER i_A\[13\]
*CELL NULL
*C2_R1_C1 2.250e-03 7.370e-03 2.250e-03 
*LOADS
*RC a_reg_13_:D 3.316e-05
*END

*R_NET i_A\[12\] 4.500e-03
*DRIVER i_A\[12\]
*CELL NULL
*C2_R1_C1 2.250e-03 7.370e-03 2.250e-03 
*LOADS
*RC a_reg_12_:D 3.316e-05
*END

*R_NET i_A\[11\] 4.500e-03
*DRIVER i_A\[11\]
*CELL NULL
*C2_R1_C1 2.250e-03 7.370e-03 2.250e-03 
*LOADS
*RC a_reg_11_:D 3.316e-05
*END

*R_NET i_A\[10\] 4.500e-03
*DRIVER i_A\[10\]
*CELL NULL
*C2_R1_C1 2.250e-03 7.370e-03 2.250e-03 
*LOADS
*RC a_reg_10_:D 3.316e-05
*END

*R_NET i_A\[9\] 4.500e-03
*DRIVER i_A\[9\]
*CELL NULL
*C2_R1_C1 2.250e-03 7.370e-03 2.250e-03 
*LOADS
*RC a_reg_9_:D 3.316e-05
*END

*R_NET i_A\[8\] 4.500e-03
*DRIVER i_A\[8\]
*CELL NULL
*C2_R1_C1 2.250e-03 7.370e-03 2.250e-03 
*LOADS
*RC a_reg_8_:D 3.316e-05
*END

*R_NET i_A\[7\] 4.500e-03
*DRIVER i_A\[7\]
*CELL NULL
*C2_R1_C1 2.250e-03 7.370e-03 2.250e-03 
*LOADS
*RC a_reg_7_:D 3.316e-05
*END

*R_NET i_A\[6\] 4.500e-03
*DRIVER i_A\[6\]
*CELL NULL
*C2_R1_C1 2.250e-03 7.370e-03 2.250e-03 
*LOADS
*RC a_reg_6_:D 3.316e-05
*END

*R_NET i_A\[5\] 4.500e-03
*DRIVER i_A\[5\]
*CELL NULL
*C2_R1_C1 2.250e-03 7.370e-03 2.250e-03 
*LOADS
*RC a_reg_5_:D 3.316e-05
*END

*R_NET i_A\[4\] 4.500e-03
*DRIVER i_A\[4\]
*CELL NULL
*C2_R1_C1 2.250e-03 7.370e-03 2.250e-03 
*LOADS
*RC a_reg_4_:D 3.316e-05
*END

*R_NET i_A\[3\] 4.500e-03
*DRIVER i_A\[3\]
*CELL NULL
*C2_R1_C1 2.250e-03 7.370e-03 2.250e-03 
*LOADS
*RC a_reg_3_:D 3.316e-05
*END

*R_NET i_A\[2\] 4.500e-03
*DRIVER i_A\[2\]
*CELL NULL
*C2_R1_C1 2.250e-03 7.370e-03 2.250e-03 
*LOADS
*RC a_reg_2_:D 3.316e-05
*END

*R_NET i_A\[1\] 4.500e-03
*DRIVER i_A\[1\]
*CELL NULL
*C2_R1_C1 2.250e-03 7.370e-03 2.250e-03 
*LOADS
*RC a_reg_1_:D 3.316e-05
*END

*R_NET i_A\[0\] 4.500e-03
*DRIVER i_A\[0\]
*CELL NULL
*C2_R1_C1 2.250e-03 7.370e-03 2.250e-03 
*LOADS
*RC a_reg_0_:D 3.316e-05
*END

*R_NET i_A_STB 5.630e-03
*DRIVER i_A_STB
*CELL NULL
*C2_R1_C1 2.815e-03 7.370e-03 2.815e-03 
*LOADS
*RC U374:B 4.149e-05
*END

*R_NET o_A_ACK 1.326e-02
*DRIVER o_A_ACK_reg:Q
*CELL fd1qd1_hd
*C2_R1_C1 6.630e-03 9.460e-03 6.630e-03 
*LOADS
*RC U374:C 1.254e-04
*RC U441:B 1.254e-04
*RC o_A_ACK 1.254e-04
*END

*R_NET o_Z\[31\] 3.150e-03
*DRIVER o_Z_reg_31_:Q
*CELL fd1eqd1_hd
*C2_R1_C1 1.575e-03 7.370e-03 1.575e-03 
*LOADS
*RC o_Z\[31\] 2.322e-05
*END

*R_NET o_Z\[30\] 3.150e-03
*DRIVER o_Z_reg_30_:Q
*CELL fd1eqd1_hd
*C2_R1_C1 1.575e-03 7.370e-03 1.575e-03 
*LOADS
*RC o_Z\[30\] 2.322e-05
*END

*R_NET o_Z\[29\] 3.150e-03
*DRIVER o_Z_reg_29_:Q
*CELL fd1eqd1_hd
*C2_R1_C1 1.575e-03 7.370e-03 1.575e-03 
*LOADS
*RC o_Z\[29\] 2.322e-05
*END

*R_NET o_Z\[28\] 3.150e-03
*DRIVER o_Z_reg_28_:Q
*CELL fd1eqd1_hd
*C2_R1_C1 1.575e-03 7.370e-03 1.575e-03 
*LOADS
*RC o_Z\[28\] 2.322e-05
*END

*R_NET o_Z\[27\] 3.150e-03
*DRIVER o_Z_reg_27_:Q
*CELL fd1eqd1_hd
*C2_R1_C1 1.575e-03 7.370e-03 1.575e-03 
*LOADS
*RC o_Z\[27\] 2.322e-05
*END

*R_NET o_Z\[26\] 3.150e-03
*DRIVER o_Z_reg_26_:Q
*CELL fd1eqd1_hd
*C2_R1_C1 1.575e-03 7.370e-03 1.575e-03 
*LOADS
*RC o_Z\[26\] 2.322e-05
*END

*R_NET o_Z\[25\] 3.150e-03
*DRIVER o_Z_reg_25_:Q
*CELL fd1eqd1_hd
*C2_R1_C1 1.575e-03 7.370e-03 1.575e-03 
*LOADS
*RC o_Z\[25\] 2.322e-05
*END

*R_NET o_Z\[24\] 3.150e-03
*DRIVER o_Z_reg_24_:Q
*CELL fd1eqd1_hd
*C2_R1_C1 1.575e-03 7.370e-03 1.575e-03 
*LOADS
*RC o_Z\[24\] 2.322e-05
*END

*R_NET o_Z\[23\] 3.150e-03
*DRIVER o_Z_reg_23_:Q
*CELL fd1eqd1_hd
*C2_R1_C1 1.575e-03 7.370e-03 1.575e-03 
*LOADS
*RC o_Z\[23\] 2.322e-05
*END

*R_NET o_Z\[22\] 3.150e-03
*DRIVER o_Z_reg_22_:Q
*CELL fd1eqd1_hd
*C2_R1_C1 1.575e-03 7.370e-03 1.575e-03 
*LOADS
*RC o_Z\[22\] 2.322e-05
*END

*R_NET o_Z\[21\] 3.150e-03
*DRIVER o_Z_reg_21_:Q
*CELL fd1eqd1_hd
*C2_R1_C1 1.575e-03 7.370e-03 1.575e-03 
*LOADS
*RC o_Z\[21\] 2.322e-05
*END

*R_NET o_Z\[20\] 3.150e-03
*DRIVER o_Z_reg_20_:Q
*CELL fd1eqd1_hd
*C2_R1_C1 1.575e-03 7.370e-03 1.575e-03 
*LOADS
*RC o_Z\[20\] 2.322e-05
*END

*R_NET o_Z\[19\] 3.150e-03
*DRIVER o_Z_reg_19_:Q
*CELL fd1eqd1_hd
*C2_R1_C1 1.575e-03 7.370e-03 1.575e-03 
*LOADS
*RC o_Z\[19\] 2.322e-05
*END

*R_NET o_Z\[18\] 3.150e-03
*DRIVER o_Z_reg_18_:Q
*CELL fd1eqd1_hd
*C2_R1_C1 1.575e-03 7.370e-03 1.575e-03 
*LOADS
*RC o_Z\[18\] 2.322e-05
*END

*R_NET o_Z\[17\] 3.150e-03
*DRIVER o_Z_reg_17_:Q
*CELL fd1eqd1_hd
*C2_R1_C1 1.575e-03 7.370e-03 1.575e-03 
*LOADS
*RC o_Z\[17\] 2.322e-05
*END

*R_NET o_Z\[16\] 3.150e-03
*DRIVER o_Z_reg_16_:Q
*CELL fd1eqd1_hd
*C2_R1_C1 1.575e-03 7.370e-03 1.575e-03 
*LOADS
*RC o_Z\[16\] 2.322e-05
*END

*R_NET o_Z\[15\] 3.150e-03
*DRIVER o_Z_reg_15_:Q
*CELL fd1eqd1_hd
*C2_R1_C1 1.575e-03 7.370e-03 1.575e-03 
*LOADS
*RC o_Z\[15\] 2.322e-05
*END

*R_NET o_Z\[14\] 3.150e-03
*DRIVER o_Z_reg_14_:Q
*CELL fd1eqd1_hd
*C2_R1_C1 1.575e-03 7.370e-03 1.575e-03 
*LOADS
*RC o_Z\[14\] 2.322e-05
*END

*R_NET o_Z\[13\] 3.150e-03
*DRIVER o_Z_reg_13_:Q
*CELL fd1eqd1_hd
*C2_R1_C1 1.575e-03 7.370e-03 1.575e-03 
*LOADS
*RC o_Z\[13\] 2.322e-05
*END

*R_NET o_Z\[12\] 3.150e-03
*DRIVER o_Z_reg_12_:Q
*CELL fd1eqd1_hd
*C2_R1_C1 1.575e-03 7.370e-03 1.575e-03 
*LOADS
*RC o_Z\[12\] 2.322e-05
*END

*R_NET o_Z\[11\] 3.150e-03
*DRIVER o_Z_reg_11_:Q
*CELL fd1eqd1_hd
*C2_R1_C1 1.575e-03 7.370e-03 1.575e-03 
*LOADS
*RC o_Z\[11\] 2.322e-05
*END

*R_NET o_Z\[10\] 3.150e-03
*DRIVER o_Z_reg_10_:Q
*CELL fd1eqd1_hd
*C2_R1_C1 1.575e-03 7.370e-03 1.575e-03 
*LOADS
*RC o_Z\[10\] 2.322e-05
*END

*R_NET o_Z\[9\] 3.150e-03
*DRIVER o_Z_reg_9_:Q
*CELL fd1eqd1_hd
*C2_R1_C1 1.575e-03 7.370e-03 1.575e-03 
*LOADS
*RC o_Z\[9\] 2.322e-05
*END

*R_NET o_Z\[8\] 3.150e-03
*DRIVER o_Z_reg_8_:Q
*CELL fd1eqd1_hd
*C2_R1_C1 1.575e-03 7.370e-03 1.575e-03 
*LOADS
*RC o_Z\[8\] 2.322e-05
*END

*R_NET o_Z\[7\] 3.150e-03
*DRIVER o_Z_reg_7_:Q
*CELL fd1eqd1_hd
*C2_R1_C1 1.575e-03 7.370e-03 1.575e-03 
*LOADS
*RC o_Z\[7\] 2.322e-05
*END

*R_NET o_Z\[6\] 3.150e-03
*DRIVER o_Z_reg_6_:Q
*CELL fd1eqd1_hd
*C2_R1_C1 1.575e-03 7.370e-03 1.575e-03 
*LOADS
*RC o_Z\[6\] 2.322e-05
*END

*R_NET o_Z\[5\] 3.150e-03
*DRIVER o_Z_reg_5_:Q
*CELL fd1eqd1_hd
*C2_R1_C1 1.575e-03 7.370e-03 1.575e-03 
*LOADS
*RC o_Z\[5\] 2.322e-05
*END

*R_NET o_Z\[4\] 3.150e-03
*DRIVER o_Z_reg_4_:Q
*CELL fd1eqd1_hd
*C2_R1_C1 1.575e-03 7.370e-03 1.575e-03 
*LOADS
*RC o_Z\[4\] 2.322e-05
*END

*R_NET o_Z\[3\] 3.150e-03
*DRIVER o_Z_reg_3_:Q
*CELL fd1eqd1_hd
*C2_R1_C1 1.575e-03 7.370e-03 1.575e-03 
*LOADS
*RC o_Z\[3\] 2.322e-05
*END

*R_NET o_Z\[2\] 3.150e-03
*DRIVER o_Z_reg_2_:Q
*CELL fd1eqd1_hd
*C2_R1_C1 1.575e-03 7.370e-03 1.575e-03 
*LOADS
*RC o_Z\[2\] 2.322e-05
*END

*R_NET o_Z\[1\] 3.150e-03
*DRIVER o_Z_reg_1_:Q
*CELL fd1eqd1_hd
*C2_R1_C1 1.575e-03 7.370e-03 1.575e-03 
*LOADS
*RC o_Z\[1\] 2.322e-05
*END

*R_NET o_Z\[0\] 3.150e-03
*DRIVER o_Z_reg_0_:Q
*CELL fd1eqd1_hd
*C2_R1_C1 1.575e-03 7.370e-03 1.575e-03 
*LOADS
*RC o_Z\[0\] 2.322e-05
*END

*R_NET o_Z_STB 1.326e-02
*DRIVER o_Z_STB_reg:Q
*CELL fd1qd1_hd
*C2_R1_C1 6.630e-03 9.460e-03 6.630e-03 
*LOADS
*RC U432:C 1.254e-04
*RC U547:B 1.254e-04
*RC o_Z_STB 1.254e-04
*END

*R_NET i_Z_ACK 5.630e-03
*DRIVER i_Z_ACK
*CELL NULL
*C2_R1_C1 2.815e-03 7.370e-03 2.815e-03 
*LOADS
*RC U432:B 4.149e-05
*END

*R_NET state\[2\] 1.008e-02
*DRIVER state_reg_2_:Q
*CELL fd1qd1_hd
*C2_R1_C1 5.040e-03 9.100e-03 5.040e-03 
*LOADS
*RC U368:A 9.173e-05
*RC U395:B 9.173e-05
*END

*R_NET state\[1\] 2.207e-02
*DRIVER state_reg_1_:Q
*CELL fd1qd1_hd
*C2_R1_C1 1.103e-02 1.094e-02 1.103e-02 
*LOADS
*RC U257:A 2.414e-04
*RC U366:A 2.414e-04
*RC U397:A 2.414e-04
*RC U401:B 2.414e-04
*END

*R_NET state\[0\] 1.028e-02
*DRIVER state_reg_0_:Q
*CELL fd1qd1_hd
*C2_R1_C1 5.140e-03 9.100e-03 5.140e-03 
*LOADS
*RC U369:A 9.355e-05
*RC U375:A 9.355e-05
*END

*R_NET a\[30\] 1.555e-02
*DRIVER a_reg_30_:Q
*CELL fd1eqd1_hd
*C2_R1_C1 7.775e-03 9.460e-03 7.775e-03 
*LOADS
*RC U299:A 1.471e-04
*RC U319:AN 1.471e-04
*RC U544:A 1.471e-04
*END

*R_NET a\[29\] 1.683e-02
*DRIVER a_reg_29_:Q
*CELL fd1eqd1_hd
*C2_R1_C1 8.415e-03 9.460e-03 8.415e-03 
*LOADS
*RC U320:A 1.592e-04
*RC U541:A 1.592e-04
*RC U542:C 1.592e-04
*END

*R_NET a\[28\] 5.220e-03
*DRIVER a_reg_28_:Q
*CELL fd1eqd1_hd
*C2_R1_C1 2.610e-03 7.370e-03 2.610e-03 
*LOADS
*RC U354:A 3.847e-05
*END

*R_NET a\[27\] 1.683e-02
*DRIVER a_reg_27_:Q
*CELL fd1eqd1_hd
*C2_R1_C1 8.415e-03 9.460e-03 8.415e-03 
*LOADS
*RC U321:A 1.592e-04
*RC U534:A 1.592e-04
*RC U535:C 1.592e-04
*END

*R_NET a\[26\] 5.220e-03
*DRIVER a_reg_26_:Q
*CELL fd1eqd1_hd
*C2_R1_C1 2.610e-03 7.370e-03 2.610e-03 
*LOADS
*RC U355:A 3.847e-05
*END

*R_NET a\[25\] 1.683e-02
*DRIVER a_reg_25_:Q
*CELL fd1eqd1_hd
*C2_R1_C1 8.415e-03 9.460e-03 8.415e-03 
*LOADS
*RC U322:A 1.592e-04
*RC U527:A 1.592e-04
*RC U528:C 1.592e-04
*END

*R_NET a\[24\] 5.220e-03
*DRIVER a_reg_24_:Q
*CELL fd1eqd1_hd
*C2_R1_C1 2.610e-03 7.370e-03 2.610e-03 
*LOADS
*RC U356:A 3.847e-05
*END

*R_NET a\[23\] 1.683e-02
*DRIVER a_reg_23_:Q
*CELL fd1eqd1_hd
*C2_R1_C1 8.415e-03 9.460e-03 8.415e-03 
*LOADS
*RC U323:A 1.592e-04
*RC U520:A 1.592e-04
*RC U521:C 1.592e-04
*END

*R_NET a\[22\] 5.220e-03
*DRIVER a_reg_22_:Q
*CELL fd1eqd1_hd
*C2_R1_C1 2.610e-03 7.370e-03 2.610e-03 
*LOADS
*RC U357:A 3.847e-05
*END

*R_NET a\[21\] 1.683e-02
*DRIVER a_reg_21_:Q
*CELL fd1eqd1_hd
*C2_R1_C1 8.415e-03 9.460e-03 8.415e-03 
*LOADS
*RC U324:A 1.592e-04
*RC U513:A 1.592e-04
*RC U514:C 1.592e-04
*END

*R_NET a\[20\] 5.220e-03
*DRIVER a_reg_20_:Q
*CELL fd1eqd1_hd
*C2_R1_C1 2.610e-03 7.370e-03 2.610e-03 
*LOADS
*RC U358:A 3.847e-05
*END

*R_NET a\[19\] 1.683e-02
*DRIVER a_reg_19_:Q
*CELL fd1eqd1_hd
*C2_R1_C1 8.415e-03 9.460e-03 8.415e-03 
*LOADS
*RC U325:A 1.592e-04
*RC U506:A 1.592e-04
*RC U507:C 1.592e-04
*END

*R_NET a\[18\] 5.220e-03
*DRIVER a_reg_18_:Q
*CELL fd1eqd1_hd
*C2_R1_C1 2.610e-03 7.370e-03 2.610e-03 
*LOADS
*RC U359:A 3.847e-05
*END

*R_NET a\[17\] 1.683e-02
*DRIVER a_reg_17_:Q
*CELL fd1eqd1_hd
*C2_R1_C1 8.415e-03 9.460e-03 8.415e-03 
*LOADS
*RC U326:A 1.592e-04
*RC U499:A 1.592e-04
*RC U500:C 1.592e-04
*END

*R_NET a\[16\] 5.220e-03
*DRIVER a_reg_16_:Q
*CELL fd1eqd1_hd
*C2_R1_C1 2.610e-03 7.370e-03 2.610e-03 
*LOADS
*RC U360:A 3.847e-05
*END

*R_NET a\[15\] 1.683e-02
*DRIVER a_reg_15_:Q
*CELL fd1eqd1_hd
*C2_R1_C1 8.415e-03 9.460e-03 8.415e-03 
*LOADS
*RC U327:A 1.592e-04
*RC U492:A 1.592e-04
*RC U493:C 1.592e-04
*END

*R_NET a\[14\] 5.220e-03
*DRIVER a_reg_14_:Q
*CELL fd1eqd1_hd
*C2_R1_C1 2.610e-03 7.370e-03 2.610e-03 
*LOADS
*RC U361:A 3.847e-05
*END

*R_NET a\[13\] 1.683e-02
*DRIVER a_reg_13_:Q
*CELL fd1eqd1_hd
*C2_R1_C1 8.415e-03 9.460e-03 8.415e-03 
*LOADS
*RC U328:A 1.592e-04
*RC U485:A 1.592e-04
*RC U486:C 1.592e-04
*END

*R_NET a\[12\] 5.220e-03
*DRIVER a_reg_12_:Q
*CELL fd1eqd1_hd
*C2_R1_C1 2.610e-03 7.370e-03 2.610e-03 
*LOADS
*RC U362:A 3.847e-05
*END

*R_NET a\[11\] 1.683e-02
*DRIVER a_reg_11_:Q
*CELL fd1eqd1_hd
*C2_R1_C1 8.415e-03 9.460e-03 8.415e-03 
*LOADS
*RC U329:A 1.592e-04
*RC U478:A 1.592e-04
*RC U479:C 1.592e-04
*END

*R_NET a\[10\] 5.220e-03
*DRIVER a_reg_10_:Q
*CELL fd1eqd1_hd
*C2_R1_C1 2.610e-03 7.370e-03 2.610e-03 
*LOADS
*RC U363:A 3.847e-05
*END

*R_NET a\[9\] 1.683e-02
*DRIVER a_reg_9_:Q
*CELL fd1eqd1_hd
*C2_R1_C1 8.415e-03 9.460e-03 8.415e-03 
*LOADS
*RC U330:A 1.592e-04
*RC U471:A 1.592e-04
*RC U472:C 1.592e-04
*END

*R_NET a\[8\] 5.220e-03
*DRIVER a_reg_8_:Q
*CELL fd1eqd1_hd
*C2_R1_C1 2.610e-03 7.370e-03 2.610e-03 
*LOADS
*RC U364:A 3.847e-05
*END

*R_NET a\[7\] 1.683e-02
*DRIVER a_reg_7_:Q
*CELL fd1eqd1_hd
*C2_R1_C1 8.415e-03 9.460e-03 8.415e-03 
*LOADS
*RC U331:A 1.592e-04
*RC U464:A 1.592e-04
*RC U465:C 1.592e-04
*END

*R_NET a\[6\] 5.220e-03
*DRIVER a_reg_6_:Q
*CELL fd1eqd1_hd
*C2_R1_C1 2.610e-03 7.370e-03 2.610e-03 
*LOADS
*RC U342:A 3.847e-05
*END

*R_NET a\[5\] 1.683e-02
*DRIVER a_reg_5_:Q
*CELL fd1eqd1_hd
*C2_R1_C1 8.415e-03 9.460e-03 8.415e-03 
*LOADS
*RC U332:A 1.592e-04
*RC U457:A 1.592e-04
*RC U458:C 1.592e-04
*END

*R_NET a\[4\] 5.220e-03
*DRIVER a_reg_4_:Q
*CELL fd1eqd1_hd
*C2_R1_C1 2.610e-03 7.370e-03 2.610e-03 
*LOADS
*RC U343:A 3.847e-05
*END

*R_NET a\[3\] 1.683e-02
*DRIVER a_reg_3_:Q
*CELL fd1eqd1_hd
*C2_R1_C1 8.415e-03 9.460e-03 8.415e-03 
*LOADS
*RC U333:A 1.592e-04
*RC U450:A 1.592e-04
*RC U451:C 1.592e-04
*END

*R_NET a\[2\] 5.220e-03
*DRIVER a_reg_2_:Q
*CELL fd1eqd1_hd
*C2_R1_C1 2.610e-03 7.370e-03 2.610e-03 
*LOADS
*RC U334:A 3.847e-05
*END

*R_NET a\[1\] 1.677e-02
*DRIVER a_reg_1_:Q
*CELL fd1eqd1_hd
*C2_R1_C1 8.385e-03 9.460e-03 8.385e-03 
*LOADS
*RC U335:A 1.586e-04
*RC U443:A 1.586e-04
*RC U444:A 1.586e-04
*END

*R_NET value\[31\] 9.700e-03
*DRIVER value_reg_31_:Q
*CELL fd1qd1_hd
*C2_R1_C1 4.850e-03 9.100e-03 4.850e-03 
*LOADS
*RC U428:B 8.827e-05
*RC U545:D 8.827e-05
*END

*R_NET value\[30\] 9.650e-03
*DRIVER value_reg_30_:Q
*CELL fd1qd1_hd
*C2_R1_C1 4.825e-03 9.100e-03 4.825e-03 
*LOADS
*RC U377:A 8.781e-05
*RC U645:B 8.781e-05
*END

*R_NET value\[29\] 1.085e-02
*DRIVER value_reg_29_:Q
*CELL fd1qd1_hd
*C2_R1_C1 5.425e-03 9.100e-03 5.425e-03 
*LOADS
*RC U541:C 9.874e-05
*RC U643:B 9.874e-05
*END

*R_NET value\[28\] 1.077e-02
*DRIVER value_reg_28_:Q
*CELL fd1qd1_hd
*C2_R1_C1 5.385e-03 9.100e-03 5.385e-03 
*LOADS
*RC U538:A 9.801e-05
*RC U641:B 9.801e-05
*END

*R_NET value\[27\] 1.085e-02
*DRIVER value_reg_27_:Q
*CELL fd1qd1_hd
*C2_R1_C1 5.425e-03 9.100e-03 5.425e-03 
*LOADS
*RC U534:C 9.874e-05
*RC U636:B 9.874e-05
*END

*R_NET value\[26\] 1.077e-02
*DRIVER value_reg_26_:Q
*CELL fd1qd1_hd
*C2_R1_C1 5.385e-03 9.100e-03 5.385e-03 
*LOADS
*RC U531:A 9.801e-05
*RC U634:B 9.801e-05
*END

*R_NET value\[25\] 1.085e-02
*DRIVER value_reg_25_:Q
*CELL fd1qd1_hd
*C2_R1_C1 5.425e-03 9.100e-03 5.425e-03 
*LOADS
*RC U527:C 9.874e-05
*RC U628:B 9.874e-05
*END

*R_NET value\[24\] 1.077e-02
*DRIVER value_reg_24_:Q
*CELL fd1qd1_hd
*C2_R1_C1 5.385e-03 9.100e-03 5.385e-03 
*LOADS
*RC U524:A 9.801e-05
*RC U625:B 9.801e-05
*END

*R_NET value\[23\] 1.085e-02
*DRIVER value_reg_23_:Q
*CELL fd1qd1_hd
*C2_R1_C1 5.425e-03 9.100e-03 5.425e-03 
*LOADS
*RC U520:C 9.874e-05
*RC U620:B 9.874e-05
*END

*R_NET value\[22\] 1.077e-02
*DRIVER value_reg_22_:Q
*CELL fd1qd1_hd
*C2_R1_C1 5.385e-03 9.100e-03 5.385e-03 
*LOADS
*RC U517:A 9.801e-05
*RC U618:B 9.801e-05
*END

*R_NET value\[21\] 1.085e-02
*DRIVER value_reg_21_:Q
*CELL fd1qd1_hd
*C2_R1_C1 5.425e-03 9.100e-03 5.425e-03 
*LOADS
*RC U513:C 9.874e-05
*RC U612:B 9.874e-05
*END

*R_NET value\[20\] 1.077e-02
*DRIVER value_reg_20_:Q
*CELL fd1qd1_hd
*C2_R1_C1 5.385e-03 9.100e-03 5.385e-03 
*LOADS
*RC U510:A 9.801e-05
*RC U609:B 9.801e-05
*END

*R_NET value\[19\] 1.085e-02
*DRIVER value_reg_19_:Q
*CELL fd1qd1_hd
*C2_R1_C1 5.425e-03 9.100e-03 5.425e-03 
*LOADS
*RC U506:C 9.874e-05
*RC U604:B 9.874e-05
*END

*R_NET value\[18\] 1.077e-02
*DRIVER value_reg_18_:Q
*CELL fd1qd1_hd
*C2_R1_C1 5.385e-03 9.100e-03 5.385e-03 
*LOADS
*RC U503:A 9.801e-05
*RC U602:B 9.801e-05
*END

*R_NET value\[17\] 1.085e-02
*DRIVER value_reg_17_:Q
*CELL fd1qd1_hd
*C2_R1_C1 5.425e-03 9.100e-03 5.425e-03 
*LOADS
*RC U499:C 9.874e-05
*RC U597:B 9.874e-05
*END

*R_NET value\[16\] 1.077e-02
*DRIVER value_reg_16_:Q
*CELL fd1qd1_hd
*C2_R1_C1 5.385e-03 9.100e-03 5.385e-03 
*LOADS
*RC U496:A 9.801e-05
*RC U594:B 9.801e-05
*END

*R_NET value\[15\] 1.085e-02
*DRIVER value_reg_15_:Q
*CELL fd1qd1_hd
*C2_R1_C1 5.425e-03 9.100e-03 5.425e-03 
*LOADS
*RC U492:C 9.874e-05
*RC U589:B 9.874e-05
*END

*R_NET value\[14\] 1.077e-02
*DRIVER value_reg_14_:Q
*CELL fd1qd1_hd
*C2_R1_C1 5.385e-03 9.100e-03 5.385e-03 
*LOADS
*RC U489:A 9.801e-05
*RC U587:B 9.801e-05
*END

*R_NET value\[13\] 1.085e-02
*DRIVER value_reg_13_:Q
*CELL fd1qd1_hd
*C2_R1_C1 5.425e-03 9.100e-03 5.425e-03 
*LOADS
*RC U485:C 9.874e-05
*RC U581:B 9.874e-05
*END

*R_NET value\[12\] 1.077e-02
*DRIVER value_reg_12_:Q
*CELL fd1qd1_hd
*C2_R1_C1 5.385e-03 9.100e-03 5.385e-03 
*LOADS
*RC U482:A 9.801e-05
*RC U578:B 9.801e-05
*END

*R_NET value\[11\] 1.085e-02
*DRIVER value_reg_11_:Q
*CELL fd1qd1_hd
*C2_R1_C1 5.425e-03 9.100e-03 5.425e-03 
*LOADS
*RC U478:C 9.874e-05
*RC U573:B 9.874e-05
*END

*R_NET value\[10\] 9.670e-03
*DRIVER value_reg_10_:Q
*CELL fd1qd1_hd
*C2_R1_C1 4.835e-03 9.100e-03 4.835e-03 
*LOADS
*RC U475:A 8.800e-05
*RC U572:B 8.800e-05
*END

*R_NET value\[9\] 1.085e-02
*DRIVER value_reg_9_:Q
*CELL fd1qd1_hd
*C2_R1_C1 5.425e-03 9.100e-03 5.425e-03 
*LOADS
*RC U471:C 9.874e-05
*RC U566:B 9.874e-05
*END

*R_NET value\[8\] 1.077e-02
*DRIVER value_reg_8_:Q
*CELL fd1qd1_hd
*C2_R1_C1 5.385e-03 9.100e-03 5.385e-03 
*LOADS
*RC U468:A 9.801e-05
*RC U564:B 9.801e-05
*END

*R_NET value\[7\] 1.085e-02
*DRIVER value_reg_7_:Q
*CELL fd1qd1_hd
*C2_R1_C1 5.425e-03 9.100e-03 5.425e-03 
*LOADS
*RC U464:C 9.874e-05
*RC U562:B 9.874e-05
*END

*R_NET value\[6\] 1.077e-02
*DRIVER value_reg_6_:Q
*CELL fd1qd1_hd
*C2_R1_C1 5.385e-03 9.100e-03 5.385e-03 
*LOADS
*RC U461:A 9.801e-05
*RC U548:B 9.801e-05
*END

*R_NET value\[5\] 1.085e-02
*DRIVER value_reg_5_:Q
*CELL fd1qd1_hd
*C2_R1_C1 5.425e-03 9.100e-03 5.425e-03 
*LOADS
*RC U457:C 9.874e-05
*RC U558:B 9.874e-05
*END

*R_NET value\[4\] 1.077e-02
*DRIVER value_reg_4_:Q
*CELL fd1qd1_hd
*C2_R1_C1 5.385e-03 9.100e-03 5.385e-03 
*LOADS
*RC U454:A 9.801e-05
*RC U556:B 9.801e-05
*END

*R_NET value\[3\] 1.085e-02
*DRIVER value_reg_3_:Q
*CELL fd1qd1_hd
*C2_R1_C1 5.425e-03 9.100e-03 5.425e-03 
*LOADS
*RC U450:C 9.874e-05
*RC U554:B 9.874e-05
*END

*R_NET value\[2\] 1.077e-02
*DRIVER value_reg_2_:Q
*CELL fd1qd1_hd
*C2_R1_C1 5.385e-03 9.100e-03 5.385e-03 
*LOADS
*RC U447:A 9.801e-05
*RC U552:B 9.801e-05
*END

*R_NET value\[1\] 1.085e-02
*DRIVER value_reg_1_:Q
*CELL fd1qd1_hd
*C2_R1_C1 5.425e-03 9.100e-03 5.425e-03 
*LOADS
*RC U443:C 9.874e-05
*RC U550:B 9.874e-05
*END

*R_NET value\[0\] 8.610e-03
*DRIVER value_reg_0_:Q
*CELL fd1qd1_hd
*C2_R1_C1 4.305e-03 9.100e-03 4.305e-03 
*LOADS
*RC U303:C 7.835e-05
*RC U305:B 7.835e-05
*END

*R_NET z_e\[7\] 1.660e-02
*DRIVER z_e_reg_7_:Q
*CELL fd1qd1_hd
*C2_R1_C1 8.300e-03 9.460e-03 8.300e-03 
*LOADS
*RC U301:A 1.570e-04
*RC U654:A 1.570e-04
*RC U660:C 1.570e-04
*END

*R_NET z_e\[6\] 2.305e-02
*DRIVER z_e_reg_6_:Q
*CELL fd1qd1_hd
*C2_R1_C1 1.152e-02 1.094e-02 1.152e-02 
*LOADS
*RC U384:A 2.522e-04
*RC U659:A 2.522e-04
*RC U660:A 2.522e-04
*RC U664:A 2.522e-04
*END

*R_NET z_e\[5\] 2.483e-02
*DRIVER z_e_reg_5_:Q
*CELL fd1qd1_hd
*C2_R1_C1 1.242e-02 1.549e-02 1.242e-02 
*LOADS
*RC U258:A 3.846e-04
*RC U381:A 3.846e-04
*RC U404:A 3.846e-04
*RC U656:A 3.846e-04
*RC U663:A 3.846e-04
*END

*R_NET z_e\[4\] 1.583e-02
*DRIVER z_e_reg_4_:Q
*CELL fd1qd1_hd
*C2_R1_C1 7.915e-03 9.460e-03 7.915e-03 
*LOADS
*RC U242:A 1.498e-04
*RC U385:A 1.498e-04
*RC U675:A 1.498e-04
*END

*R_NET z_e\[3\] 1.517e-02
*DRIVER z_e_reg_3_:Q
*CELL fd1qd1_hd
*C2_R1_C1 7.585e-03 9.460e-03 7.585e-03 
*LOADS
*RC U382:A 1.435e-04
*RC U398:A 1.435e-04
*RC U651:A 1.435e-04
*END

*R_NET z_e\[2\] 1.582e-02
*DRIVER z_e_reg_2_:Q
*CELL fd1qd1_hd
*C2_R1_C1 7.910e-03 9.460e-03 7.910e-03 
*LOADS
*RC U256:B 1.497e-04
*RC U386:A 1.497e-04
*RC U671:A 1.497e-04
*END

*R_NET z_e\[1\] 1.602e-02
*DRIVER z_e_reg_1_:Q
*CELL fd1qd1_hd
*C2_R1_C1 8.010e-03 9.460e-03 8.010e-03 
*LOADS
*RC U353:AN 1.515e-04
*RC U399:B 1.515e-04
*RC U668:B 1.515e-04
*END

*R_NET z_e\[0\] 9.960e-03
*DRIVER z_e_reg_0_:Q
*CELL fd1qd1_hd
*C2_R1_C1 4.980e-03 9.100e-03 4.980e-03 
*LOADS
*RC U383:A 9.064e-05
*RC U399:A 9.064e-05
*END

*R_NET z_m\[23\] 1.664e-02
*DRIVER z_m_reg_23_:Q
*CELL fd1qd1_hd
*C2_R1_C1 8.320e-03 9.460e-03 8.320e-03 
*LOADS
*RC U387:A 1.574e-04
*RC U400:B 1.574e-04
*RC U427:A 1.574e-04
*END

*R_NET z_m\[22\] 3.175e-02
*DRIVER z_m_reg_22_:Q
*CELL fd1qd1_hd
*C2_R1_C1 1.588e-02 1.674e-02 1.588e-02 
*LOADS
*RC U293:A 5.315e-04
*RC z_reg_22_:D 5.315e-04
*RC U425:B 5.315e-04
*RC U428:C 5.315e-04
*RC U646:A 5.315e-04
*RC U648:A 5.315e-04
*END

*R_NET z_m\[21\] 3.213e-02
*DRIVER z_m_reg_21_:Q
*CELL fd1qd1_hd
*C2_R1_C1 1.606e-02 1.674e-02 1.606e-02 
*LOADS
*RC U253:A 5.379e-04
*RC U376:A 5.379e-04
*RC z_reg_21_:D 5.379e-04
*RC U424:A 5.379e-04
*RC U645:D 5.379e-04
*RC U648:B 5.379e-04
*END

*R_NET z_m\[20\] 2.195e-02
*DRIVER z_m_reg_20_:Q
*CELL fd1qd1_hd
*C2_R1_C1 1.097e-02 1.094e-02 1.097e-02 
*LOADS
*RC U392:A 2.401e-04
*RC z_reg_20_:D 2.401e-04
*RC U640:A 2.401e-04
*RC U643:D 2.401e-04
*END

*R_NET z_m\[19\] 2.609e-02
*DRIVER z_m_reg_19_:Q
*CELL fd1qd1_hd
*C2_R1_C1 1.304e-02 1.549e-02 1.304e-02 
*LOADS
*RC U286:A 4.041e-04
*RC z_reg_19_:D 4.041e-04
*RC U407:A 4.041e-04
*RC U638:A 4.041e-04
*RC U641:C 4.041e-04
*END

*R_NET z_m\[18\] 2.612e-02
*DRIVER z_m_reg_18_:Q
*CELL fd1qd1_hd
*C2_R1_C1 1.306e-02 1.549e-02 1.306e-02 
*LOADS
*RC U238:A 4.046e-04
*RC z_reg_18_:D 4.046e-04
*RC U631:A 4.046e-04
*RC U634:C 4.046e-04
*RC U636:D 4.046e-04
*END

*R_NET z_m\[17\] 2.124e-02
*DRIVER z_m_reg_17_:Q
*CELL fd1qd1_hd
*C2_R1_C1 1.062e-02 1.094e-02 1.062e-02 
*LOADS
*RC U238:B 2.324e-04
*RC U379:A 2.324e-04
*RC z_reg_17_:D 2.324e-04
*RC U633:A 2.324e-04
*END

*R_NET z_m\[16\] 2.195e-02
*DRIVER z_m_reg_16_:Q
*CELL fd1qd1_hd
*C2_R1_C1 1.097e-02 1.094e-02 1.097e-02 
*LOADS
*RC U391:A 2.401e-04
*RC z_reg_16_:D 2.401e-04
*RC U624:A 2.401e-04
*RC U628:D 2.401e-04
*END

*R_NET z_m\[15\] 2.609e-02
*DRIVER z_m_reg_15_:Q
*CELL fd1qd1_hd
*C2_R1_C1 1.304e-02 1.549e-02 1.304e-02 
*LOADS
*RC U287:A 4.041e-04
*RC z_reg_15_:D 4.041e-04
*RC U409:A 4.041e-04
*RC U622:A 4.041e-04
*RC U625:C 4.041e-04
*END

*R_NET z_m\[14\] 2.612e-02
*DRIVER z_m_reg_14_:Q
*CELL fd1qd1_hd
*C2_R1_C1 1.306e-02 1.549e-02 1.306e-02 
*LOADS
*RC U232:A 4.046e-04
*RC z_reg_14_:D 4.046e-04
*RC U615:A 4.046e-04
*RC U618:C 4.046e-04
*RC U620:D 4.046e-04
*END

*R_NET z_m\[13\] 2.124e-02
*DRIVER z_m_reg_13_:Q
*CELL fd1qd1_hd
*C2_R1_C1 1.062e-02 1.094e-02 1.062e-02 
*LOADS
*RC U232:B 2.324e-04
*RC U378:A 2.324e-04
*RC z_reg_13_:D 2.324e-04
*RC U617:A 2.324e-04
*END

*R_NET z_m\[12\] 2.195e-02
*DRIVER z_m_reg_12_:Q
*CELL fd1qd1_hd
*C2_R1_C1 1.097e-02 1.094e-02 1.097e-02 
*LOADS
*RC U394:A 2.401e-04
*RC z_reg_12_:D 2.401e-04
*RC U608:A 2.401e-04
*RC U612:D 2.401e-04
*END

*R_NET z_m\[11\] 2.609e-02
*DRIVER z_m_reg_11_:Q
*CELL fd1qd1_hd
*C2_R1_C1 1.304e-02 1.549e-02 1.304e-02 
*LOADS
*RC U288:A 4.041e-04
*RC z_reg_11_:D 4.041e-04
*RC U411:A 4.041e-04
*RC U606:A 4.041e-04
*RC U609:C 4.041e-04
*END

*R_NET z_m\[10\] 2.194e-02
*DRIVER z_m_reg_10_:Q
*CELL fd1qd1_hd
*C2_R1_C1 1.097e-02 1.094e-02 1.097e-02 
*LOADS
*RC z_reg_10_:D 2.400e-04
*RC U413:A 2.400e-04
*RC U602:C 2.400e-04
*RC U604:D 2.400e-04
*END

*R_NET z_m\[9\] 1.522e-02
*DRIVER z_m_reg_9_:Q
*CELL fd1qd1_hd
*C2_R1_C1 7.610e-03 9.460e-03 7.610e-03 
*LOADS
*RC U390:A 1.440e-04
*RC z_reg_9_:D 1.440e-04
*RC U601:A 1.440e-04
*END

*R_NET z_m\[8\] 2.195e-02
*DRIVER z_m_reg_8_:Q
*CELL fd1qd1_hd
*C2_R1_C1 1.097e-02 1.094e-02 1.097e-02 
*LOADS
*RC U393:A 2.401e-04
*RC z_reg_8_:D 2.401e-04
*RC U593:A 2.401e-04
*RC U597:D 2.401e-04
*END

*R_NET z_m\[7\] 2.609e-02
*DRIVER z_m_reg_7_:Q
*CELL fd1qd1_hd
*C2_R1_C1 1.304e-02 1.549e-02 1.304e-02 
*LOADS
*RC U289:A 4.041e-04
*RC z_reg_7_:D 4.041e-04
*RC U415:A 4.041e-04
*RC U591:A 4.041e-04
*RC U594:C 4.041e-04
*END

*R_NET z_m\[6\] 2.612e-02
*DRIVER z_m_reg_6_:Q
*CELL fd1qd1_hd
*C2_R1_C1 1.306e-02 1.549e-02 1.306e-02 
*LOADS
*RC U241:A 4.046e-04
*RC z_reg_6_:D 4.046e-04
*RC U584:A 4.046e-04
*RC U587:C 4.046e-04
*RC U589:D 4.046e-04
*END

*R_NET z_m\[5\] 2.124e-02
*DRIVER z_m_reg_5_:Q
*CELL fd1qd1_hd
*C2_R1_C1 1.062e-02 1.094e-02 1.062e-02 
*LOADS
*RC U241:B 2.324e-04
*RC z_reg_5_:D 2.324e-04
*RC U380:A 2.324e-04
*RC U586:A 2.324e-04
*END

*R_NET z_m\[4\] 2.195e-02
*DRIVER z_m_reg_4_:Q
*CELL fd1qd1_hd
*C2_R1_C1 1.097e-02 1.094e-02 1.097e-02 
*LOADS
*RC z_reg_4_:D 2.401e-04
*RC U389:A 2.401e-04
*RC U577:A 2.401e-04
*RC U581:D 2.401e-04
*END

*R_NET z_m\[3\] 2.609e-02
*DRIVER z_m_reg_3_:Q
*CELL fd1qd1_hd
*C2_R1_C1 1.304e-02 1.549e-02 1.304e-02 
*LOADS
*RC U282:A 4.041e-04
*RC z_reg_3_:D 4.041e-04
*RC U417:A 4.041e-04
*RC U575:A 4.041e-04
*RC U578:C 4.041e-04
*END

*R_NET z_m\[2\] 2.648e-02
*DRIVER z_m_reg_2_:Q
*CELL fd1qd1_hd
*C2_R1_C1 1.324e-02 1.549e-02 1.324e-02 
*LOADS
*RC U231:A 4.102e-04
*RC z_reg_2_:D 4.102e-04
*RC U569:C 4.102e-04