*SPEF "IEEE 1481-1999"
*DESIGN "i2c_master"
*DATE "Tue Jun  9 05:40:20 2020"
*VENDOR "SYNOPSYS INC"
*PROGRAM "Synopsys Design Compiler cmos"
*VERSION "F-2011.09-SP5-3"
*DESIGN_FLOW "SYNTHESIS"
*DIVIDER /
*DELIMITER :
*BUS_DELIMITER []
*T_UNIT 1.0 NS
*C_UNIT 1.0 PF
*R_UNIT 1.0 KOHM
*L_UNIT 1.0 HENRY

*PORTS

i_CLK I *L 0.000e+00 *S 0.000e+00 0.000e+00 
i_RSTN I *L 7.914e-02 *S 0.000e+00 0.000e+00 
cmd_start I *L 1.900e-03 *S 1.474e-01 1.673e-01 *D fd4qd1_hd 
cmd_read I *L 1.900e-03 *S 2.755e-01 2.767e-01 *D fd4qd1_hd 
cmd_write I *L 1.900e-03 *S 1.998e-01 2.167e-01 *D fd4qd1_hd 
cmd_write_multiple I *L 1.900e-03 *S 2.003e-01 2.171e-01 *D fd4qd1_hd 
cmd_stop I *L 1.900e-03 *S 1.408e-01 1.610e-01 *D fd4qd1_hd 
cmd_valid I *L 1.900e-03 *S 1.474e-01 1.673e-01 *D fd4qd1_hd 
cmd_ready O *L 1.035e-02 *S 1.757e-01 1.330e-01 
data_in\[7\] I *L 1.900e-03 *S 9.796e-02 1.179e-01 *D fd4qd1_hd 
data_in\[6\] I *L 1.900e-03 *S 1.093e-01 1.305e-01 *D fd4qd1_hd 
data_in\[5\] I *L 1.900e-03 *S 9.796e-02 1.179e-01 *D fd4qd1_hd 
data_in\[4\] I *L 1.900e-03 *S 9.787e-02 1.178e-01 *D fd4qd1_hd 
data_in\[3\] I *L 1.900e-03 *S 9.796e-02 1.179e-01 *D fd4qd1_hd 
data_in\[2\] I *L 1.900e-03 *S 9.787e-02 1.178e-01 *D fd4qd1_hd 
data_in\[1\] I *L 1.900e-03 *S 9.796e-02 1.179e-01 *D fd4qd1_hd 
data_in\[0\] I *L 1.900e-03 *S 9.787e-02 1.178e-01 *D fd4qd1_hd 
data_in_valid I *L 1.900e-03 *S 9.853e-02 1.185e-01 *D fd4qd1_hd 
data_in_ready O *L 1.035e-02 *S 2.696e-01 1.929e-01 
data_in_last I *L 1.900e-03 *S 9.635e-02 1.161e-01 *D fd4qd1_hd 
data_out\[7\] O *L 1.035e-02 *S 1.246e-01 1.083e-01 
data_out\[6\] O *L 1.035e-02 *S 1.246e-01 1.083e-01 
data_out\[5\] O *L 1.035e-02 *S 1.246e-01 1.083e-01 
data_out\[4\] O *L 1.035e-02 *S 1.246e-01 1.083e-01 
data_out\[3\] O *L 1.035e-02 *S 1.246e-01 1.083e-01 
data_out\[2\] O *L 1.035e-02 *S 1.246e-01 1.083e-01 
data_out\[1\] O *L 1.035e-02 *S 1.246e-01 1.083e-01 
data_out\[0\] O *L 1.035e-02 *S 1.246e-01 1.083e-01 
data_out_valid O *L 1.035e-02 *S 2.451e-01 1.775e-01 
data_out_ready I *L 1.900e-03 *S 1.031e-01 1.236e-01 *D fd4qd1_hd 
data_out_last O *L 1.035e-02 *S 9.866e-02 8.984e-02 
scl_i I *L 0.000e+00 *S 0.000e+00 0.000e+00 
scl_o O *L 1.035e-02 *S 2.534e-01 1.837e-01 
scl_t O *L 1.035e-02 *S 1.130e-01 7.848e-02 
sda_i I *L 0.000e+00 *S 0.000e+00 0.000e+00 
sda_o O *L 1.035e-02 *S 2.148e-01 1.599e-01 
sda_t O *L 1.035e-02 *S 1.619e-01 1.056e-01 
busy O *L 1.035e-02 *S 1.058e-01 8.365e-02 
bus_control O *L 1.035e-02 *S 1.468e-01 1.154e-01 
bus_active O *L 1.035e-02 *S 2.288e-01 1.772e-01 
missed_ack O *L 1.035e-02 *S 1.320e-01 1.022e-01 

*R_NET data_in\[7\] 8.950e-03
*DRIVER data_in\[7\]
*CELL fd4qd1_hd
*C2_R1_C1 4.475e-03 9.100e-03 4.475e-03 
*LOADS
*RC U63:D 8.145e-05
*END

*R_NET data_in\[6\] 1.017e-02
*DRIVER data_in\[6\]
*CELL fd4qd1_hd
*C2_R1_C1 5.085e-03 9.100e-03 5.085e-03 
*LOADS
*RC U234:D 9.255e-05
*END

*R_NET data_in\[5\] 8.950e-03
*DRIVER data_in\[5\]
*CELL fd4qd1_hd
*C2_R1_C1 4.475e-03 9.100e-03 4.475e-03 
*LOADS
*RC U62:D 8.145e-05
*END

*R_NET data_in\[4\] 8.940e-03
*DRIVER data_in\[4\]
*CELL fd4qd1_hd
*C2_R1_C1 4.470e-03 9.100e-03 4.470e-03 
*LOADS
*RC U49:D 8.135e-05
*END

*R_NET data_in\[3\] 8.950e-03
*DRIVER data_in\[3\]
*CELL fd4qd1_hd
*C2_R1_C1 4.475e-03 9.100e-03 4.475e-03 
*LOADS
*RC U61:D 8.145e-05
*END

*R_NET data_in\[2\] 8.940e-03
*DRIVER data_in\[2\]
*CELL fd4qd1_hd
*C2_R1_C1 4.470e-03 9.100e-03 4.470e-03 
*LOADS
*RC U48:D 8.135e-05
*END

*R_NET data_in\[1\] 8.950e-03
*DRIVER data_in\[1\]
*CELL fd4qd1_hd
*C2_R1_C1 4.475e-03 9.100e-03 4.475e-03 
*LOADS
*RC U60:D 8.145e-05
*END

*R_NET data_in\[0\] 8.940e-03
*DRIVER data_in\[0\]
*CELL fd4qd1_hd
*C2_R1_C1 4.470e-03 9.100e-03 4.470e-03 
*LOADS
*RC U50:D 8.135e-05
*END

*R_NET i_CLK 1.719e-01
*DRIVER i_CLK
*CELL NULL
*C2_R1_C1 8.597e-02 7.031e-02 8.597e-02 
*LOADS
*RC clk_gate_clk_r_REG9_S3/latch:CK 1.209e-02
*RC clk_gate_clk_r_REG29_S2/latch:CK 1.209e-02
*RC clk_gate_clk_r_REG23_S2/latch:CK 1.209e-02
*RC clk_gate_clk_r_REG13_S3/latch:CK 1.209e-02
*RC clk_gate_clk_r_REG51_S5/latch:CK 1.209e-02
*RC clk_gate_clk_r_REG37_S7/latch:CK 1.209e-02
*RC clk_r_REG2_S1:CK 1.209e-02
*RC clk_r_REG66_S2:CK 1.209e-02
*RC clk_r_REG65_S1:CK 1.209e-02
*RC clk_r_REG64_S1:CK 1.209e-02
*RC clk_r_REG25_S1:CK 1.209e-02
*RC clk_r_REG26_S1:CK 1.209e-02
*RC clk_r_REG52_S1:CK 1.209e-02
*RC clk_r_REG28_S1:CK 1.209e-02
*RC clk_r_REG27_S1:CK 1.209e-02
*RC clk_r_REG67_S1:CK 1.209e-02
*RC clk_r_REG63_S1:CK 1.209e-02
*RC clk_gate_clk_r_REG38_S7/latch:CK 1.209e-02
*END

*R_NET cmd_start 1.467e-02
*DRIVER cmd_start
*CELL fd4qd1_hd
*C2_R1_C1 7.335e-03 9.460e-03 7.335e-03 
*LOADS
*RC U433:A 1.388e-04
*RC U423:A 1.388e-04
*END

*R_NET cmd_read 3.033e-02
*DRIVER cmd_read
*CELL fd4qd1_hd
*C2_R1_C1 1.516e-02 1.674e-02 1.516e-02 
*LOADS
*RC U26:A 5.077e-04
*RC U56:A 5.077e-04
*RC U843:A 5.077e-04
*RC U792:B 5.077e-04
*RC U427:A 5.077e-04
*END

*R_NET cmd_write 2.090e-02
*DRIVER cmd_write
*CELL fd4qd1_hd
*C2_R1_C1 1.045e-02 1.094e-02 1.045e-02 
*LOADS
*RC U810:B 2.286e-04
*RC U439:A 2.286e-04
*RC U427:B 2.286e-04
*END

*R_NET cmd_write_multiple 2.096e-02
*DRIVER cmd_write_multiple
*CELL fd4qd1_hd
*C2_R1_C1 1.048e-02 1.094e-02 1.048e-02 
*LOADS
*RC U55:A 2.293e-04
*RC U842:B 2.293e-04
*RC U439:B 2.293e-04
*END

*R_NET cmd_stop 1.389e-02
*DRIVER cmd_stop
*CELL fd4qd1_hd
*C2_R1_C1 6.945e-03 9.460e-03 6.945e-03 
*LOADS
*RC U54:A 1.314e-04
*RC U845:A 1.314e-04
*END

*R_NET cmd_valid 1.467e-02
*DRIVER cmd_valid
*CELL fd4qd1_hd
*C2_R1_C1 7.335e-03 9.460e-03 7.335e-03 
*LOADS
*RC U785:B 1.388e-04
*RC U438:A 1.388e-04
*END

*R_NET data_in_valid 9.010e-03
*DRIVER data_in_valid
*CELL fd4qd1_hd
*C2_R1_C1 4.505e-03 9.100e-03 4.505e-03 
*LOADS
*RC U824:B 8.199e-05
*END

*R_NET data_in_last 8.780e-03
*DRIVER data_in_last
*CELL fd4qd1_hd
*C2_R1_C1 4.390e-03 9.100e-03 4.390e-03 
*LOADS
*RC U229:B 7.990e-05
*END

*R_NET data_out_ready 9.490e-03
*DRIVER data_out_ready
*CELL fd4qd1_hd
*C2_R1_C1 4.745e-03 9.100e-03 4.745e-03 
*LOADS
*RC U519:A 8.636e-05
*END

*R_NET cmd_ready0 4.620e-03
*DRIVER U107:Y
*CELL ao21d1_hd
*C2_R1_C1 2.310e-03 7.370e-03 2.310e-03 
*LOADS
*RC clk_r_REG28_S1:D 3.405e-05
*END

*R_NET data_in_ready0 4.620e-03
*DRIVER U105:Y
*CELL ao21d1_hd
*C2_R1_C1 2.310e-03 7.370e-03 2.310e-03 
*LOADS
*RC clk_r_REG52_S1:D 3.405e-05
*END

*R_NET data_out_valid0 4.620e-03
*DRIVER U102:Y
*CELL scg16d1_hd
*C2_R1_C1 2.310e-03 7.370e-03 2.310e-03 
*LOADS
*RC clk_r_REG27_S1:D 3.405e-05
*END

*R_NET scl_o0 4.500e-03
*DRIVER U99:Y
*CELL oa21d1_hd
*C2_R1_C1 2.250e-03 7.370e-03 2.250e-03 
*LOADS
*RC clk_r_REG1_S1:D 3.316e-05
*END

*R_NET scl_t 1.350e-02
*DRIVER U846:Y
*CELL nid1_hd
*C2_R1_C1 6.750e-03 7.370e-03 6.750e-03 
*LOADS
*RC scl_t 9.950e-05
*END

*R_NET sda_o0 4.500e-03
*DRIVER U80:Y
*CELL oa21d1_hd
*C2_R1_C1 2.250e-03 7.370e-03 2.250e-03 
*LOADS
*RC clk_r_REG0_S1:D 3.316e-05
*END

*R_NET sda_t 1.853e-02
*DRIVER U834:Y
*CELL ivd1_hd
*C2_R1_C1 9.265e-03 9.100e-03 9.265e-03 
*LOADS
*RC sda_t 1.686e-04
*RC U84:C 1.686e-04
*END

*R_NET busy0 4.620e-03
*DRIVER busy_reg_reg_U2:Y
*CELL ad2d1_hd
*C2_R1_C1 2.310e-03 7.370e-03 2.310e-03 
*LOADS
*RC clk_r_REG25_S1:D 3.405e-05
*END

*R_NET bus_control0 4.500e-03
*DRIVER U78:Y
*CELL nr2d1_hd
*C2_R1_C1 2.250e-03 7.370e-03 2.250e-03 
*LOADS
*RC clk_r_REG22_S3:D 3.316e-05
*END

*R_NET missed_ack0 4.620e-03
*DRIVER U77:Y
*CELL scg12d1_hd
*C2_R1_C1 2.310e-03 7.370e-03 2.310e-03 
*LOADS
*RC clk_r_REG26_S1:D 3.405e-05
*END

*R_NET N92 5.353e-02
*DRIVER U459:Y
*CELL nid1_hd
*C2_R1_C1 2.677e-02 2.090e-02 2.677e-02 
*LOADS
*RC U566:C 1.119e-03
*RC U186:B 1.119e-03
*RC U184:B 1.119e-03
*RC U177:B 1.119e-03
*RC U174:B 1.119e-03
*RC U169:A 1.119e-03
*RC U83:C 1.119e-03
*RC U14:D 1.119e-03
*RC U11:B 1.119e-03
*END

*R_NET scl_i 1.436e-02
*DRIVER scl_i
*CELL NULL
*C2_R1_C1 7.180e-03 9.460e-03 7.180e-03 
*LOADS
*RC u_cell_5468:B 1.358e-04
*RC u_cell_5539:B 1.358e-04
*RC U536:A 1.358e-04
*END

*R_NET sda_i 1.415e-02
*DRIVER sda_i
*CELL NULL
*C2_R1_C1 7.075e-03 9.460e-03 7.075e-03 
*LOADS
*RC clk_r_REG67_S1:D 1.339e-04
*RC U626:A 1.339e-04
*RC U623:A 1.339e-04
*END

*R_NET sda_posedge 4.590e-03
*DRIVER U623:Y
*CELL ad2d1_hd
*C2_R1_C1 2.295e-03 7.370e-03 2.295e-03 
*LOADS
*RC u_cell_5539:A 3.383e-05
*END

*R_NET sda_negedge 4.590e-03
*DRIVER U625:Y
*CELL ad2d1_hd
*C2_R1_C1 2.295e-03 7.370e-03 2.295e-03 
*LOADS
*RC u_cell_5468:A 3.383e-05
*END

*R_NET last_reg 4.500e-03
*DRIVER U229:Y
*CELL scg14d1_hd
*C2_R1_C1 2.250e-03 7.370e-03 2.250e-03 
*LOADS
*RC clk_r_REG35_S6:D 3.316e-05
*END

*R_NET bit_count_reg_0_ 4.500e-03
*DRIVER U268:Y
*CELL ao22ad1_hd
*C2_R1_C1 2.250e-03 7.370e-03 2.250e-03 
*LOADS
*RC clk_r_REG61_S5:D 3.316e-05
*END

*R_NET N121 2.548e-02
*DRIVER U843:Y
*CELL xo2d1_hd
*C2_R1_C1 1.274e-02 1.549e-02 1.274e-02 
*LOADS
*RC U844:A 3.947e-04
*RC U841:B 3.947e-04
*RC U529:A 3.947e-04
*RC U325:B 3.947e-04
*RC U322:A 3.947e-04
*END

*R_NET N122 4.672e-02
*DRIVER U785:Y
*CELL ad2d1_hd
*C2_R1_C1 2.336e-02 2.066e-02 2.336e-02 
*LOADS
*RC U527:B 9.652e-04
*RC U436:A 9.652e-04
*RC U325:A 9.652e-04
*RC U307:B 9.652e-04
*RC U210:B 9.652e-04
*RC U209:A 9.652e-04
*RC U201:A 9.652e-04
*RC U72:B 9.652e-04
*END

*R_NET N123 2.091e-02
*DRIVER U845:Y
*CELL ad2d1_hd
*C2_R1_C1 1.045e-02 1.094e-02 1.045e-02 
*LOADS
*RC U841:A 2.288e-04
*RC U513:A 2.288e-04
*RC U322:B 2.288e-04
*RC U209:B 2.288e-04
*END

*R_NET N124 2.086e-02
*DRIVER U772:Y
*CELL ad2d1_hd
*C2_R1_C1 1.043e-02 1.094e-02 1.043e-02 
*LOADS
*RC U527:A 2.282e-04
*RC U428:A 2.282e-04
*RC U209:C 2.282e-04
*RC U72:C 2.282e-04
*END

*R_NET phy_start_bit 3.017e-02
*DRIVER U180:Y
*CELL nr2d1_hd
*C2_R1_C1 1.508e-02 1.674e-02 1.508e-02 
*LOADS
*RC U793:A 5.050e-04
*RC U776:A 5.050e-04
*RC U568:A 5.050e-04
*RC U566:B 5.050e-04
*RC U448:B 5.050e-04
*RC U443:A 5.050e-04
*END

*R_NET phy_stop_bit 8.790e-03
*DRIVER U73:Y
*CELL scg20d1_hd
*C2_R1_C1 4.395e-03 9.100e-03 4.395e-03 
*LOADS
*RC U777:A 7.999e-05
*RC U331:A 7.999e-05
*END

*R_NET phy_write_bit 1.445e-02
*DRIVER U70:Y
*CELL ao21d1_hd
*C2_R1_C1 7.225e-03 9.460e-03 7.225e-03 
*LOADS
*RC U448:A 1.367e-04
*RC U387:A 1.367e-04
*RC U335:A 1.367e-04
*END

*R_NET phy_read_bit 1.445e-02
*DRIVER U75:Y
*CELL ao21d1_hd
*C2_R1_C1 7.225e-03 9.460e-03 7.225e-03 
*LOADS
*RC U447:A 1.367e-04
*RC U334:A 1.367e-04
*RC U333:A 1.367e-04
*END

*R_NET N125 5.600e-03
*DRIVER U617:Y
*CELL ad2d1_hd
*C2_R1_C1 2.800e-03 7.370e-03 2.800e-03 
*LOADS
*RC U103:C 4.127e-05
*END

*R_NET N126 5.672e-02
*DRIVER U320:Y
*CELL ad2d1_hd
*C2_R1_C1 2.836e-02 2.139e-02 2.836e-02 
*LOADS
*RC U615:A 1.213e-03
*RC U606:A 1.213e-03
*RC U408:A 1.213e-03
*RC U392:A 1.213e-03
*RC U390:A 1.213e-03
*RC U361:A 1.213e-03
*RC U321:A 1.213e-03
*RC U180:B 1.213e-03
*RC U75:C 1.213e-03
*RC U73:C 1.213e-03
*RC U70:C 1.213e-03
*END

*R_NET N131 2.398e-02
*DRIVER U647:Y
*CELL ivd1_hd
*C2_R1_C1 1.199e-02 1.549e-02 1.199e-02 
*LOADS
*RC U694:A 3.715e-04
*RC U691:A 3.715e-04
*RC U689:A 3.715e-04
*RC U688:A 3.715e-04
*RC U326:A 3.715e-04
*END

*R_NET N132 2.497e-02
*DRIVER U695:Y
*CELL ivd1_hd
*C2_R1_C1 1.248e-02 1.549e-02 1.248e-02 
*LOADS
*RC U646:B 3.868e-04
*RC U645:B 3.868e-04
*RC U644:B 3.868e-04
*RC U643:B 3.868e-04
*RC U326:B 3.868e-04
*END

*R_NET N133 4.590e-03
*DRIVER U326:Y
*CELL ad2d1_hd
*C2_R1_C1 2.295e-03 7.370e-03 2.295e-03 
*LOADS
*RC U791:A 3.383e-05
*END

*R_NET N134 4.740e-03
*DRIVER U327:Y
*CELL ad2d1_hd
*C2_R1_C1 2.370e-03 7.370e-03 2.370e-03 
*LOADS
*RC U791:B 3.493e-05
*END

*R_NET N135 5.108e-02
*DRIVER U791:Y
*CELL ad2d1_hd
*C2_R1_C1 2.554e-02 2.115e-02 2.554e-02 
*LOADS
*RC U58:A 1.080e-03
*RC U522:A 1.080e-03
*RC U393:A 1.080e-03
*RC U391:A 1.080e-03
*RC U362:A 1.080e-03
*RC U351:B 1.080e-03
*RC U300:A 1.080e-03
*RC U299:AN 1.080e-03
*RC U275:B 1.080e-03
*RC U6:B 1.080e-03
*END

*R_NET N136 4.980e-03
*DRIVER U690:Y
*CELL or2d1_hd
*C2_R1_C1 2.490e-03 7.370e-03 2.490e-03 
*LOADS
*RC U525:A 3.670e-05
*END

*R_NET N137 5.190e-03
*DRIVER U526:Y
*CELL or2d1_hd
*C2_R1_C1 2.595e-03 7.370e-03 2.595e-03 
*LOADS
*RC U525:B 3.825e-05
*END

*R_NET N138 2.290e-02
*DRIVER U525:Y
*CELL or2d1_hd
*C2_R1_C1 1.145e-02 1.094e-02 1.145e-02 
*LOADS
*RC U790:A 2.505e-04
*RC U285:B 2.505e-04
*RC U213:B 2.505e-04
*RC U5:B 2.505e-04
*END

*R_NET N139 4.324e-02
*DRIVER U790:Y
*CELL ivd1_hd
*C2_R1_C1 2.162e-02 2.066e-02 2.162e-02 
*LOADS
*RC U468:A 8.933e-04
*RC U401:A 8.933e-04
*RC U389:A 8.933e-04
*RC U384:C 8.933e-04
*RC U351:A 8.933e-04
*RC U306:B 8.933e-04
*RC U210:A 8.933e-04
*RC U109:A 8.933e-04
*END

*R_NET N140 5.520e-03
*DRIVER U692:Y
*CELL or2d1_hd
*C2_R1_C1 2.760e-03 7.370e-03 2.760e-03 
*LOADS
*RC U789:A 4.068e-05
*END

*R_NET N141 5.640e-03
*DRIVER U674:Y
*CELL or2d1_hd
*C2_R1_C1 2.820e-03 7.370e-03 2.820e-03 
*LOADS
*RC U789:B 4.157e-05
*END

*R_NET N144 5.520e-03
*DRIVER U693:Y
*CELL or2d1_hd
*C2_R1_C1 2.760e-03 7.370e-03 2.760e-03 
*LOADS
*RC U328:A 4.068e-05
*END

*R_NET N145 5.640e-03
*DRIVER U329:Y
*CELL or2d1_hd
*C2_R1_C1 2.820e-03 7.370e-03 2.820e-03 
*LOADS
*RC U328:B 4.157e-05
*END

*R_NET N148 5.520e-03
*DRIVER U645:Y
*CELL or2d1_hd
*C2_R1_C1 2.760e-03 7.370e-03 2.760e-03 
*LOADS
*RC U317:A 4.068e-05
*END

*R_NET N149 5.640e-03
*DRIVER U673:Y
*CELL or2d1_hd
*C2_R1_C1 2.820e-03 7.370e-03 2.820e-03 
*LOADS
*RC U317:B 4.157e-05
*END

*R_NET N152 5.520e-03
*DRIVER U646:Y
*CELL or2d1_hd
*C2_R1_C1 2.760e-03 7.370e-03 2.760e-03 
*LOADS
*RC U314:A 4.068e-05
*END

*R_NET N153 5.640e-03
*DRIVER U511:Y
*CELL or2d1_hd
*C2_R1_C1 2.820e-03 7.370e-03 2.820e-03 
*LOADS
*RC U314:B 4.157e-05
*END

*R_NET N156 5.520e-03
*DRIVER U643:Y
*CELL or2d1_hd
*C2_R1_C1 2.760e-03 7.370e-03 2.760e-03 
*LOADS
*RC U319:A 4.068e-05
*END

*R_NET N157 5.640e-03
*DRIVER U671:Y
*CELL or2d1_hd
*C2_R1_C1 2.820e-03 7.370e-03 2.820e-03 
*LOADS
*RC U319:B 4.157e-05
*END

*R_NET N160 5.520e-03
*DRIVER U644:Y
*CELL or2d1_hd
*C2_R1_C1 2.760e-03 7.370e-03 2.760e-03 
*LOADS
*RC U804:A 4.068e-05
*END

*R_NET N161 5.640e-03
*DRIVER U409:Y
*CELL or2d1_hd
*C2_R1_C1 2.820e-03 7.370e-03 2.820e-03 
*LOADS
*RC U804:B 4.157e-05
*END

*R_NET N164 4.980e-03
*DRIVER U691:Y
*CELL or2d1_hd
*C2_R1_C1 2.490e-03 7.370e-03 2.490e-03 
*LOADS
*RC U508:A 3.670e-05
*END

*R_NET N165 5.190e-03
*DRIVER U672:Y
*CELL or2d1_hd
*C2_R1_C1 2.595e-03 7.370e-03 2.595e-03 
*LOADS
*RC U508:B 3.825e-05
*END

*R_NET N166 2.732e-02
*DRIVER U508:Y
*CELL or2d1_hd
*C2_R1_C1 1.366e-02 1.549e-02 1.366e-02 
*LOADS
*RC U795:A 4.232e-04
*RC U269:A 4.232e-04
*RC U212:B 4.232e-04
*RC U192:B 4.232e-04
*RC U3:B 4.232e-04
*END

*R_NET N167 2.296e-02
*DRIVER U795:Y
*CELL ivd1_hd
*C2_R1_C1 1.148e-02 1.549e-02 1.148e-02 
*LOADS
*RC U599:A 3.557e-04
*RC U499:A 3.557e-04
*RC U479:A 3.557e-04
*RC U417:A 3.557e-04
*RC U97:B 3.557e-04
*END

*R_NET N168 5.520e-03
*DRIVER U689:Y
*CELL or2d1_hd
*C2_R1_C1 2.760e-03 7.370e-03 2.760e-03 
*LOADS
*RC U313:A 4.068e-05
*END

*R_NET N169 5.640e-03
*DRIVER U532:Y
*CELL or2d1_hd
*C2_R1_C1 2.820e-03 7.370e-03 2.820e-03 
*LOADS
*RC U313:B 4.157e-05
*END

*R_NET N172 7.560e-03
*DRIVER U694:Y
*CELL or2d1_hd
*C2_R1_C1 3.780e-03 7.370e-03 3.780e-03 
*LOADS
*RC U35:A 5.572e-05
*END

*R_NET N173 8.130e-03
*DRIVER U675:Y
*CELL or2d1_hd
*C2_R1_C1 4.065e-03 7.370e-03 4.065e-03 
*LOADS
*RC U35:B 5.992e-05
*END

*R_NET N176 5.520e-03
*DRIVER U688:Y
*CELL or2d1_hd
*C2_R1_C1 2.760e-03 7.370e-03 2.760e-03 
*LOADS
*RC U778:A 4.068e-05
*END

*R_NET N177 5.640e-03
*DRIVER U432:Y
*CELL or2d1_hd
*C2_R1_C1 2.820e-03 7.370e-03 2.820e-03 
*LOADS
*RC U778:B 4.157e-05
*END

*R_NET N223 5.190e-03
*DRIVER U429:Y
*CELL ivd1_hd
*C2_R1_C1 2.595e-03 7.370e-03 2.595e-03 
*LOADS
*RC U428:B 3.825e-05
*END

*R_NET N226 1.095e-02
*DRIVER U792:Y
*CELL or2d1_hd
*C2_R1_C1 5.475e-03 9.100e-03 5.475e-03 
*LOADS
*RC U283:A 9.965e-05
*RC U262:B 9.965e-05
*END

*R_NET N243 5.830e-03
*DRIVER U844:Y
*CELL ivd1_hd
*C2_R1_C1 2.915e-03 7.370e-03 2.915e-03 
*LOADS
*RC U307:A 4.297e-05
*END

*R_NET N249 5.600e-03
*DRIVER U529:Y
*CELL or2d1_hd
*C2_R1_C1 2.800e-03 7.370e-03 2.800e-03 
*LOADS
*RC U210:C 4.127e-05
*END

*R_NET N272 1.614e-02
*DRIVER U810:Y
*CELL or2d1_hd
*C2_R1_C1 8.070e-03 9.460e-03 8.070e-03 
*LOADS
*RC U426:A 1.527e-04
*RC U261:B 1.527e-04
*RC U202:A 1.527e-04
*END

*R_NET N306 5.830e-03
*DRIVER U322:Y
*CELL or2d1_hd
*C2_R1_C1 2.915e-03 7.370e-03 2.915e-03 
*LOADS
*RC U72:A 4.297e-05
*END

*R_NET N348 4.730e-03
*DRIVER U677:Y
*CELL xn2d1_hd
*C2_R1_C1 2.365e-03 7.370e-03 2.365e-03 
*LOADS
*RC U676:A 3.486e-05
*END

*R_NET N349 4.730e-03
*DRIVER U572:Y
*CELL xn2d1_hd
*C2_R1_C1 2.365e-03 7.370e-03 2.365e-03 
*LOADS
*RC U571:A 3.486e-05
*END

*R_NET N350 5.830e-03
*DRIVER U569:Y
*CELL xn2d1_hd
*C2_R1_C1 2.915e-03 7.370e-03 2.915e-03 
*LOADS
*RC U256:C 4.297e-05
*END

*R_NET N351 1.505e-02
*DRIVER gt_x_2_U4:Y
*CELL oa21d1_hd
*C2_R1_C1 7.525e-03 9.460e-03 7.525e-03 
*LOADS
*RC U514:B 1.424e-04
*RC U337:A 1.424e-04
*RC U324:A 1.424e-04
*END

*R_NET N352 3.541e-02
*DRIVER gt_x_187_U4:Y
*CELL oa21d1_hd
*C2_R1_C1 1.771e-02 1.715e-02 1.771e-02 
*LOADS
*RC U95:B 6.073e-04
*RC U514:A 6.073e-04
*RC U510:A 6.073e-04
*RC U437:A 6.073e-04
*RC U226:A 6.073e-04
*RC U212:A 6.073e-04
*RC U97:A 6.073e-04
*END

*R_NET N355 5.910e-03
*DRIVER U337:Y
*CELL or2d1_hd
*C2_R1_C1 2.955e-03 7.370e-03 2.955e-03 
*LOADS
*RC U214:B 4.356e-05
*END

*R_NET N371 9.570e-03
*DRIVER U824:Y
*CELL ad2d1_hd
*C2_R1_C1 4.785e-03 9.100e-03 4.785e-03 
*LOADS
*RC U281:B 8.709e-05
*RC U260:A 8.709e-05
*END

*R_NET N396 1.550e-02
*DRIVER U530:Y
*CELL ad2d1_hd
*C2_R1_C1 7.750e-03 9.460e-03 7.750e-03 
*LOADS
*RC U837:B 1.466e-04
*RC U620:A 1.466e-04
*RC U430:A 1.466e-04
*END

*R_NET N399 5.020e-03
*DRIVER U620:Y
*CELL or2d1_hd
*C2_R1_C1 2.510e-03 7.370e-03 2.510e-03 
*LOADS
*RC U803:B 3.700e-05
*END

*R_NET N401 4.730e-03
*DRIVER U385:Y
*CELL ad2d1_hd
*C2_R1_C1 2.365e-03 7.370e-03 2.365e-03 
*LOADS
*RC U384:A 3.486e-05
*END

*R_NET N491 1.004e-02
*DRIVER U437:Y
*CELL ad2d1_hd
*C2_R1_C1 5.020e-03 9.100e-03 5.020e-03 
*LOADS
*RC U337:B 9.136e-05
*RC U88:B 9.136e-05
*END

*R_NET N492 1.534e-02
*DRIVER U852:Y
*CELL nd4d1_hd
*C2_R1_C1 7.670e-03 9.460e-03 7.670e-03 
*LOADS
*RC U53:A 1.451e-04
*RC U452:A 1.451e-04
*RC U418:A 1.451e-04
*END

*R_NET N497 5.620e-03
*DRIVER U629:Y
*CELL ad2d1_hd
*C2_R1_C1 2.810e-03 7.370e-03 2.810e-03 
*LOADS
*RC U113:A 4.142e-05
*END

*R_NET N500 1.077e-02
*DRIVER sub_x_143/U95:Y
*CELL ivd1_hd
*C2_R1_C1 5.385e-03 9.100e-03 5.385e-03 
*LOADS
*RC sub_x_143/U63:B 9.801e-05
*RC U166:A 9.801e-05
*END

*R_NET N501 5.800e-03
*DRIVER sub_x_143/U63:Y
*CELL ao22d1_hd
*C2_R1_C1 2.900e-03 7.370e-03 2.900e-03 
*LOADS
*RC U163:B 4.275e-05
*END

*R_NET N502 5.800e-03
*DRIVER sub_x_143/U61:Y
*CELL ao22d1_hd
*C2_R1_C1 2.900e-03 7.370e-03 2.900e-03 
*LOADS
*RC U158:B 4.275e-05
*END

*R_NET N503 5.800e-03
*DRIVER sub_x_143/U58:Y
*CELL ao22d1_hd
*C2_R1_C1 2.900e-03 7.370e-03 2.900e-03 
*LOADS
*RC U155:B 4.275e-05
*END

*R_NET N504 5.800e-03
*DRIVER sub_x_143/U56:Y
*CELL ao22d1_hd
*C2_R1_C1 2.900e-03 7.370e-03 2.900e-03 
*LOADS
*RC U152:B 4.275e-05
*END

*R_NET N505 5.800e-03
*DRIVER sub_x_143/U53:Y
*CELL ao22d1_hd
*C2_R1_C1 2.900e-03 7.370e-03 2.900e-03 
*LOADS
*RC U149:B 4.275e-05
*END

*R_NET N506 5.800e-03
*DRIVER sub_x_143/U51:Y
*CELL ao22d1_hd
*C2_R1_C1 2.900e-03 7.370e-03 2.900e-03 
*LOADS
*RC U146:B 4.275e-05
*END

*R_NET N507 5.800e-03
*DRIVER sub_x_143/U48:Y
*CELL ao22d1_hd
*C2_R1_C1 2.900e-03 7.370e-03 2.900e-03 
*LOADS
*RC U143:B 4.275e-05
*END

*R_NET N508 5.800e-03
*DRIVER sub_x_143/U46:Y
*CELL ao22d1_hd
*C2_R1_C1 2.900e-03 7.370e-03 2.900e-03 
*LOADS
*RC U140:B 4.275e-05
*END

*R_NET N509 5.800e-03
*DRIVER sub_x_143/U43:Y
*CELL ao22d1_hd
*C2_R1_C1 2.900e-03 7.370e-03 2.900e-03 
*LOADS
*RC U137:B 4.275e-05
*END

*R_NET N510 5.800e-03
*DRIVER sub_x_143/U83:Y
*CELL ao22d1_hd
*C2_R1_C1 2.900e-03 7.370e-03 2.900e-03 
*LOADS
*RC U134:B 4.275e-05
*END

*R_NET N511 5.800e-03
*DRIVER sub_x_143/U80:Y
*CELL ao22d1_hd
*C2_R1_C1 2.900e-03 7.370e-03 2.900e-03 
*LOADS
*RC U131:B 4.275e-05
*END

*R_NET N512 5.800e-03
*DRIVER sub_x_143/U76:Y
*CELL ao22d1_hd
*C2_R1_C1 2.900e-03 7.370e-03 2.900e-03 
*LOADS
*RC U128:B 4.275e-05
*END

*R_NET N513 5.800e-03
*DRIVER sub_x_143/U73:Y
*CELL ao22d1_hd
*C2_R1_C1 2.900e-03 7.370e-03 2.900e-03 
*LOADS
*RC U125:B 4.275e-05
*END

*R_NET N514 5.800e-03
*DRIVER sub_x_143/U69:Y
*CELL ao22d1_hd
*C2_R1_C1 2.900e-03 7.370e-03 2.900e-03 
*LOADS
*RC U122:B 4.275e-05
*END

*R_NET N515 5.800e-03
*DRIVER sub_x_143/U66:Y
*CELL ao22d1_hd
*C2_R1_C1 2.900e-03 7.370e-03 2.900e-03 
*LOADS
*RC U119:B 4.275e-05
*END

*R_NET N516 5.800e-03
*DRIVER sub_x_143/U42:Y
*CELL xo2d1_hd
*C2_R1_C1 2.900e-03 7.370e-03 2.900e-03 
*LOADS
*RC U116:B 4.275e-05
*END

*R_NET N518 4.216e-02
*DRIVER U658:Y
*CELL ivd1_hd
*C2_R1_C1 2.108e-02 2.066e-02 2.108e-02 
*LOADS
*RC U705:A 8.710e-04
*RC U703:A 8.710e-04
*RC U702:A 8.710e-04
*RC U701:A 8.710e-04
*RC U551:A 8.710e-04
*RC U546:A 8.710e-04
*RC U545:A 8.710e-04
*RC U517:A 8.710e-04
*END

*R_NET N519 4.378e-02
*DRIVER U450:Y
*CELL ivd1_hd
*C2_R1_C1 2.189e-02 2.066e-02 2.189e-02 
*LOADS
*RC U657:B 9.045e-04
*RC U656:B 9.045e-04
*RC U655:B 9.045e-04
*RC U654:B 9.045e-04
*RC U551:B 9.045e-04
*RC U546:B 9.045e-04
*RC U545:B 9.045e-04
*RC U517:B 9.045e-04
*END

*R_NET N520 4.216e-02
*DRIVER U451:Y
*CELL ivd1_hd
*C2_R1_C1 2.108e-02 2.066e-02 2.108e-02 
*LOADS
*RC U651:A 8.710e-04
*RC U650:A 8.710e-04
*RC U649:A 8.710e-04
*RC U648:A 8.710e-04
*RC U543:A 8.710e-04
*RC U518:A 8.710e-04
*RC U449:A 8.710e-04
*RC U431:A 8.710e-04
*END

*R_NET N521 4.590e-03
*DRIVER U517:Y
*CELL ad2d1_hd
*C2_R1_C1 2.295e-03 7.370e-03 2.295e-03 
*LOADS
*RC U807:A 3.383e-05
*END

*R_NET N522 4.740e-03
*DRIVER U518:Y
*CELL ad2d1_hd
*C2_R1_C1 2.370e-03 7.370e-03 2.370e-03 
*LOADS
*RC U807:B 3.493e-05
*END

*R_NET N523 2.991e-02
*DRIVER U807:Y
*CELL ad2d1_hd
*C2_R1_C1 1.496e-02 1.674e-02 1.496e-02 
*LOADS
*RC U566:A 5.007e-04
*RC U548:A 5.007e-04
*RC U340:A 5.007e-04
*RC U175:AN 5.007e-04
*RC U15:A 5.007e-04
*RC U11:A 5.007e-04
*END

*R_NET N524 5.520e-03
*DRIVER U700:Y
*CELL or2d1_hd
*C2_R1_C1 2.760e-03 7.370e-03 2.760e-03 
*LOADS
*RC U809:A 4.068e-05
*END

*R_NET N525 5.640e-03
*DRIVER U666:Y
*CELL or2d1_hd
*C2_R1_C1 2.820e-03 7.370e-03 2.820e-03 
*LOADS
*RC U809:B 4.157e-05
*END

*R_NET N528 5.520e-03
*DRIVER U706:Y
*CELL or2d1_hd
*C2_R1_C1 2.760e-03 7.370e-03 2.760e-03 
*LOADS
*RC U779:A 4.068e-05
*END

*R_NET N529 5.640e-03
*DRIVER U651:Y
*CELL or2d1_hd
*C2_R1_C1 2.820e-03 7.370e-03 2.820e-03 
*LOADS
*RC U779:B 4.157e-05
*END

*R_NET N532 5.520e-03
*DRIVER U704:Y
*CELL or2d1_hd
*C2_R1_C1 2.760e-03 7.370e-03 2.760e-03 
*LOADS
*RC U780:A 4.068e-05
*END

*R_NET N533 5.640e-03
*DRIVER U431:Y
*CELL or2d1_hd
*C2_R1_C1 2.820e-03 7.370e-03 2.820e-03 
*LOADS
*RC U780:B 4.157e-05
*END

*R_NET N536 5.520e-03
*DRIVER U657:Y
*CELL or2d1_hd
*C2_R1_C1 2.760e-03 7.370e-03 2.760e-03 
*LOADS
*RC U808:A 4.068e-05
*END

*R_NET N537 5.640e-03
*DRIVER U668:Y
*CELL or2d1_hd
*C2_R1_C1 2.820e-03 7.370e-03 2.820e-03 
*LOADS
*RC U808:B 4.157e-05
*END

*R_NET N540 4.980e-03
*DRIVER U654:Y
*CELL or2d1_hd
*C2_R1_C1 2.490e-03 7.370e-03 2.490e-03 
*LOADS
*RC U441:A 3.670e-05
*END

*R_NET N541 5.190e-03
*DRIVER U662:Y
*CELL or2d1_hd
*C2_R1_C1 2.595e-03 7.370e-03 2.595e-03 
*LOADS
*RC U441:B 3.825e-05
*END

*R_NET N542 1.526e-02
*DRIVER U441:Y
*CELL or2d1_hd
*C2_R1_C1 7.630e-03 9.460e-03 7.630e-03 
*LOADS
*RC U819:A 1.444e-04
*RC U539:B 1.444e-04
*RC U515:B 1.444e-04
*END

*R_NET N543 2.219e-02
*DRIVER U819:Y
*CELL ivd1_hd
*C2_R1_C1 1.110e-02 1.094e-02 1.110e-02 
*LOADS
*RC U814:A 2.428e-04
*RC U355:A 2.428e-04
*RC U79:C 2.428e-04
*RC U29:D 2.428e-04
*END

*R_NET N544 4.980e-03
*DRIVER U655:Y
*CELL or2d1_hd
*C2_R1_C1 2.490e-03 7.370e-03 2.490e-03 
*LOADS
*RC U455:A 3.670e-05
*END

*R_NET N545 5.190e-03
*DRIVER U648:Y
*CELL or2d1_hd
*C2_R1_C1 2.595e-03 7.370e-03 2.595e-03 
*LOADS
*RC U455:B 3.825e-05
*END

*R_NET N546 1.611e-02
*DRIVER U455:Y
*CELL or2d1_hd
*C2_R1_C1 8.055e-03 9.460e-03 8.055e-03 
*LOADS
*RC U783:A 1.524e-04
*RC U18:C 1.524e-04
*RC U7:B 1.524e-04
*END

*R_NET N547 2.617e-02
*DRIVER U783:Y
*CELL ivd1_hd
*C2_R1_C1 1.309e-02 1.549e-02 1.309e-02 
*LOADS
*RC U540:B 4.054e-04
*RC U353:A 4.054e-04
*RC U161:AN 4.054e-04
*RC U31:A 4.054e-04
*RC U29:A 4.054e-04
*END

*R_NET N548 5.520e-03
*DRIVER U656:Y
*CELL or2d1_hd
*C2_R1_C1 2.760e-03 7.370e-03 2.760e-03 
*LOADS
*RC U806:A 4.068e-05
*END

*R_NET N549 5.640e-03
*DRIVER U449:Y
*CELL or2d1_hd
*C2_R1_C1 2.820e-03 7.370e-03 2.820e-03 
*LOADS
*RC U806:B 4.157e-05
*END

*R_NET N552 4.980e-03
*DRIVER U701:Y
*CELL or2d1_hd
*C2_R1_C1 2.490e-03 7.370e-03 2.490e-03 
*LOADS
*RC U442:A 3.670e-05
*END

*R_NET N553 5.190e-03
*DRIVER U663:Y
*CELL or2d1_hd
*C2_R1_C1 2.595e-03 7.370e-03 2.595e-03 
*LOADS
*RC U442:B 3.825e-05
*END

*R_NET N554 1.567e-02
*DRIVER U442:Y
*CELL or2d1_hd
*C2_R1_C1 7.835e-03 9.460e-03 7.835e-03 
*LOADS
*RC U818:A 1.482e-04
*RC U453:B 1.482e-04
*RC U7:C 1.482e-04
*END

*R_NET N555 2.226e-02
*DRIVER U818:Y
*CELL ivd1_hd
*C2_R1_C1 1.113e-02 1.094e-02 1.113e-02 
*LOADS
*RC U814:B 2.435e-04
*RC U370:A 2.435e-04
*RC U27:A 2.435e-04
*RC U14:B 2.435e-04
*END

*R_NET N556 5.520e-03
*DRIVER U703:Y
*CELL or2d1_hd
*C2_R1_C1 2.760e-03 7.370e-03 2.760e-03 
*LOADS
*RC U773:A 4.068e-05
*END

*R_NET N557 5.640e-03
*DRIVER U667:Y
*CELL or2d1_hd
*C2_R1_C1 2.820e-03 7.370e-03 2.820e-03 
*LOADS
*RC U773:B 4.157e-05
*END

*R_NET N560 5.520e-03
*DRIVER U702:Y
*CELL or2d1_hd
*C2_R1_C1 2.760e-03 7.370e-03 2.760e-03 
*LOADS
*RC U769:A 4.068e-05
*END

*R_NET N561 5.640e-03
*DRIVER U649:Y
*CELL or2d1_hd
*C2_R1_C1 2.820e-03 7.370e-03 2.820e-03 
*LOADS
*RC U769:B 4.157e-05
*END

*R_NET N564 5.520e-03
*DRIVER U705:Y
*CELL or2d1_hd
*C2_R1_C1 2.760e-03 7.370e-03 2.760e-03 
*LOADS
*RC U805:A 4.068e-05
*END

*R_NET N565 5.640e-03
*DRIVER U543:Y
*CELL or2d1_hd
*C2_R1_C1 2.820e-03 7.370e-03 2.820e-03 
*LOADS
*RC U805:B 4.157e-05
*END

*R_NET N568 5.520e-03
*DRIVER U545:Y
*CELL or2d1_hd
*C2_R1_C1 2.760e-03 7.370e-03 2.760e-03 
*LOADS
*RC U544:A 4.068e-05
*END

*R_NET N569 5.640e-03
*DRIVER U664:Y
*CELL or2d1_hd
*C2_R1_C1 2.820e-03 7.370e-03 2.820e-03 
*LOADS
*RC U544:B 4.157e-05
*END

*R_NET N572 5.520e-03
*DRIVER U546:Y
*CELL or2d1_hd
*C2_R1_C1 2.760e-03 7.370e-03 2.760e-03 
*LOADS
*RC U315:A 4.068e-05
*END

*R_NET N573 5.640e-03
*DRIVER U665:Y
*CELL or2d1_hd
*C2_R1_C1 2.820e-03 7.370e-03 2.820e-03 
*LOADS
*RC U315:B 4.157e-05
*END

*R_NET N576 5.520e-03
*DRIVER U551:Y
*CELL or2d1_hd
*C2_R1_C1 2.760e-03 7.370e-03 2.760e-03 
*LOADS
*RC U316:A 4.068e-05
*END

*R_NET N577 5.640e-03
*DRIVER U650:Y
*CELL or2d1_hd
*C2_R1_C1 2.820e-03 7.370e-03 2.820e-03 
*LOADS
*RC U316:B 4.157e-05
*END

*R_NET N580 4.590e-03
*DRIVER U699:Y
*CELL ad2d1_hd
*C2_R1_C1 2.295e-03 7.370e-03 2.295e-03 
*LOADS
*RC U503:A 3.383e-05
*END

*R_NET N581 4.740e-03
*DRIVER U661:Y
*CELL ad2d1_hd
*C2_R1_C1 2.370e-03 7.370e-03 2.370e-03 
*LOADS
*RC U503:B 3.493e-05
*END

*R_NET N582 2.505e-02
*DRIVER U503:Y
*CELL ad2d1_hd
*C2_R1_C1 1.252e-02 1.549e-02 1.252e-02 
*LOADS
*RC U814:D 3.880e-04
*RC U610:A 3.880e-04
*RC U550:B 3.880e-04
*RC U538:B 3.880e-04
*RC U516:C 3.880e-04
*END

*R_NET N623 5.830e-03
*DRIVER U565:Y
*CELL or3d1_hd
*C2_R1_C1 2.915e-03 7.370e-03 2.915e-03 
*LOADS
*RC U186:A 4.297e-05
*END

*R_NET N624 5.830e-03
*DRIVER U568:Y
*CELL or2d1_hd
*C2_R1_C1 2.915e-03 7.370e-03 2.915e-03 
*LOADS
*RC U184:A 4.297e-05
*END

*R_NET N625 4.670e-03
*DRIVER U456:Y
*CELL or2d1_hd
*C2_R1_C1 2.335e-03 7.370e-03 2.335e-03 
*LOADS
*RC U566:D 3.442e-05
*END

*R_NET N626 5.830e-03
*DRIVER U567:Y
*CELL or2d1_hd
*C2_R1_C1 2.915e-03 7.370e-03 2.915e-03 
*LOADS
*RC U177:A 4.297e-05
*END

*R_NET N666 2.115e-02
*DRIVER U335:Y
*CELL ad2d1_hd
*C2_R1_C1 1.058e-02 1.094e-02 1.058e-02 
*LOADS
*RC U776:B 2.314e-04
*RC U568:B 2.314e-04
*RC U456:A 2.314e-04
*RC U446:B 2.314e-04
*END

*R_NET N669 2.111e-02
*DRIVER U334:Y
*CELL ad2d1_hd
*C2_R1_C1 1.055e-02 1.094e-02 1.055e-02 
*LOADS
*RC U793:B 2.309e-04
*RC U776:C 2.309e-04
*RC U567:A 2.309e-04
*RC U565:A 2.309e-04
*END

*R_NET N672 2.138e-02
*DRIVER U331:Y
*CELL ad2d1_hd
*C2_R1_C1 1.069e-02 1.094e-02 1.069e-02 
*LOADS
*RC U776:D 2.339e-04
*RC U567:B 2.339e-04
*RC U565:B 2.339e-04
*RC U456:B 2.339e-04
*END

*R_NET N674 4.590e-03
*DRIVER U627:Y
*CELL or2d1_hd
*C2_R1_C1 2.295e-03 7.370e-03 2.295e-03 
*LOADS
*RC busy_reg_reg_U2:A 3.383e-05
*END

*R_NET N906 5.190e-03
*DRIVER U687:Y
*CELL or2d1_hd
*C2_R1_C1 2.595e-03 7.370e-03 2.595e-03 
*LOADS
*RC U534:B 3.825e-05
*END

*R_NET N907 5.640e-03
*DRIVER U534:Y
*CELL or2d1_hd
*C2_R1_C1 2.820e-03 7.370e-03 2.820e-03 
*LOADS
*RC U838:B 4.157e-05
*END

*R_NET N910 4.411e-02
*DRIVER U330:Y
*CELL ivd1_hd
*C2_R1_C1 2.206e-02 2.066e-02 2.206e-02 
*LOADS
*RC U788:A 9.113e-04
*RC U532:B 9.113e-04
*RC U526:B 9.113e-04
*RC U511:B 9.113e-04
*RC U432:B 9.113e-04
*RC U409:B 9.113e-04
*RC U329:B 9.113e-04
*RC U327:B 9.113e-04
*END

*R_NET N912 5.190e-03
*DRIVER U686:Y
*CELL or2d1_hd
*C2_R1_C1 2.595e-03 7.370e-03 2.595e-03 
*LOADS
*RC U440:B 3.825e-05
*END

*R_NET N913 5.640e-03
*DRIVER U440:Y
*CELL or2d1_hd
*C2_R1_C1 2.820e-03 7.370e-03 2.820e-03 
*LOADS
*RC U788:B 4.157e-05
*END

*R_NET N916 4.216e-02
*DRIVER U323:Y
*CELL ivd1_hd
*C2_R1_C1 2.108e-02 2.066e-02 2.108e-02 
*LOADS
*RC U675:A 8.710e-04
*RC U674:A 8.710e-04
*RC U671:A 8.710e-04
*RC U535:A 8.710e-04
*RC U432:A 8.710e-04
*RC U409:A 8.710e-04
*RC U329:A 8.710e-04
*RC U327:A 8.710e-04
*END

*R_NET N917 4.680e-03
*DRIVER U190:Y
*CELL nr2d1_hd
*C2_R1_C1 2.340e-03 7.370e-03 2.340e-03 
*LOADS
*RC clk_r_REG29_S2:D 3.449e-05
*END

*R_NET N918 5.190e-03
*DRIVER U685:Y
*CELL or2d1_hd
*C2_R1_C1 2.595e-03 7.370e-03 2.595e-03 
*LOADS
*RC U535:B 3.825e-05
*END

*R_NET N919 5.640e-03
*DRIVER U535:Y
*CELL or2d1_hd
*C2_R1_C1 2.820e-03 7.370e-03 2.820e-03 
*LOADS
*RC U835:B 4.157e-05
*END

*R_NET N923 5.190e-03
*DRIVER U698:Y
*CELL or2d1_hd
*C2_R1_C1 2.595e-03 7.370e-03 2.595e-03 
*LOADS
*RC U660:B 3.825e-05
*END

*R_NET N924 5.640e-03
*DRIVER U660:Y
*CELL or2d1_hd
*C2_R1_C1 2.820e-03 7.370e-03 2.820e-03 
*LOADS
*RC U836:B 4.157e-05
*END

*R_NET N927 5.100e-02
*DRIVER U653:Y
*CELL ivd1_hd
*C2_R1_C1 2.550e-02 2.115e-02 2.550e-02 
*LOADS
*RC U786:A 1.079e-03
*RC U667:B 1.079e-03
*RC U666:B 1.079e-03