*SPEF "IEEE 1481-1999"
*DESIGN "i2c_master"
*DATE "Wed Aug 26 17:12:31 2020"
*VENDOR "SYNOPSYS INC"
*PROGRAM "Synopsys Design Compiler cmos"
*VERSION "F-2011.09-SP5-3"
*DESIGN_FLOW "SYNTHESIS"
*DIVIDER /
*DELIMITER :
*BUS_DELIMITER []
*T_UNIT 1.0 NS
*C_UNIT 1.0 PF
*R_UNIT 1.0 KOHM
*L_UNIT 1.0 HENRY

*PORTS

i_CLK I *L 0.000e+00 *S 0.000e+00 0.000e+00 
i_RSTN I *L 4.707e-02 *S 0.000e+00 0.000e+00 *D nid2_hd 
cmd_start I *L 1.360e-03 *S 1.302e-01 1.696e-01 *D fd2qd1_hd 
cmd_read I *L 1.580e-03 *S 2.157e-01 2.495e-01 *D fd2qd1_hd 
cmd_write I *L 1.360e-03 *S 1.820e-01 2.220e-01 *D fd2qd1_hd 
cmd_write_multiple I *L 1.520e-03 *S 1.838e-01 2.234e-01 *D fd2qd1_hd 
cmd_stop I *L 1.360e-03 *S 1.237e-01 1.629e-01 *D fd2qd1_hd 
cmd_valid I *L 1.660e-03 *S 1.327e-01 1.721e-01 *D fd2qd1_hd 
cmd_ready O *L 1.035e-02 *S 1.757e-01 1.330e-01 
data_in\[7\] I *L 1.540e-03 *S 9.408e-02 1.322e-01 *D fd2qd1_hd 
data_in\[6\] I *L 1.540e-03 *S 9.408e-02 1.322e-01 *D fd2qd1_hd 
data_in\[5\] I *L 1.540e-03 *S 9.408e-02 1.322e-01 *D fd2qd1_hd 
data_in\[4\] I *L 1.540e-03 *S 9.408e-02 1.322e-01 *D fd2qd1_hd 
data_in\[3\] I *L 1.540e-03 *S 9.408e-02 1.322e-01 *D fd2qd1_hd 
data_in\[2\] I *L 1.540e-03 *S 9.408e-02 1.322e-01 *D fd2qd1_hd 
data_in\[1\] I *L 1.540e-03 *S 9.408e-02 1.322e-01 *D fd2qd1_hd 
data_in\[0\] I *L 1.540e-03 *S 9.408e-02 1.322e-01 *D fd2qd1_hd 
data_in_valid I *L 1.940e-03 *S 8.739e-02 1.239e-01 *D fd2qd1_hd 
data_in_ready O *L 1.035e-02 *S 2.874e-01 2.041e-01 
data_in_last I *L 2.040e-03 *S 8.624e-02 1.224e-01 *D fd2qd1_hd 
data_out\[7\] O *L 1.035e-02 *S 1.246e-01 1.083e-01 
data_out\[6\] O *L 1.035e-02 *S 1.246e-01 1.083e-01 
data_out\[5\] O *L 1.035e-02 *S 1.246e-01 1.083e-01 
data_out\[4\] O *L 1.035e-02 *S 1.246e-01 1.083e-01 
data_out\[3\] O *L 1.035e-02 *S 1.246e-01 1.083e-01 
data_out\[2\] O *L 1.035e-02 *S 1.246e-01 1.083e-01 
data_out\[1\] O *L 1.035e-02 *S 1.246e-01 1.083e-01 
data_out\[0\] O *L 1.035e-02 *S 1.246e-01 1.083e-01 
data_out_valid O *L 1.035e-02 *S 2.133e-01 1.575e-01 
data_out_ready I *L 1.360e-03 *S 8.651e-02 1.227e-01 *D fd2qd1_hd 
data_out_last O *L 1.035e-02 *S 9.866e-02 8.984e-02 
scl_i I *L 0.000e+00 *S 0.000e+00 0.000e+00 
scl_o O *L 1.035e-02 *S 2.530e-01 1.825e-01 
scl_t O *L 1.035e-02 *S 1.130e-01 7.848e-02 
sda_i I *L 0.000e+00 *S 0.000e+00 0.000e+00 
sda_o O *L 1.035e-02 *S 1.347e-01 1.012e-01 
sda_t O *L 1.035e-02 *S 2.105e-01 1.695e-01 
busy O *L 1.035e-02 *S 1.058e-01 8.365e-02 
bus_control O *L 1.035e-02 *S 1.447e-01 1.112e-01 
bus_active O *L 1.035e-02 *S 2.337e-01 1.803e-01 
missed_ack O *L 1.035e-02 *S 1.320e-01 1.022e-01 

*R_NET data_in\[7\] 9.810e-03
*DRIVER data_in\[7\]
*CELL fd2qd1_hd
*C2_R1_C1 4.905e-03 9.100e-03 4.905e-03 
*LOADS
*RC U249:D 8.927e-05
*END

*R_NET data_in\[6\] 9.810e-03
*DRIVER data_in\[6\]
*CELL fd2qd1_hd
*C2_R1_C1 4.905e-03 9.100e-03 4.905e-03 
*LOADS
*RC U251:D 8.927e-05
*END

*R_NET data_in\[5\] 9.810e-03
*DRIVER data_in\[5\]
*CELL fd2qd1_hd
*C2_R1_C1 4.905e-03 9.100e-03 4.905e-03 
*LOADS
*RC U254:D 8.927e-05
*END

*R_NET data_in\[4\] 9.810e-03
*DRIVER data_in\[4\]
*CELL fd2qd1_hd
*C2_R1_C1 4.905e-03 9.100e-03 4.905e-03 
*LOADS
*RC U256:D 8.927e-05
*END

*R_NET data_in\[3\] 9.810e-03
*DRIVER data_in\[3\]
*CELL fd2qd1_hd
*C2_R1_C1 4.905e-03 9.100e-03 4.905e-03 
*LOADS
*RC U259:D 8.927e-05
*END

*R_NET data_in\[2\] 9.810e-03
*DRIVER data_in\[2\]
*CELL fd2qd1_hd
*C2_R1_C1 4.905e-03 9.100e-03 4.905e-03 
*LOADS
*RC U261:D 8.927e-05
*END

*R_NET data_in\[1\] 9.810e-03
*DRIVER data_in\[1\]
*CELL fd2qd1_hd
*C2_R1_C1 4.905e-03 9.100e-03 4.905e-03 
*LOADS
*RC U264:D 8.927e-05
*END

*R_NET data_in\[0\] 9.810e-03
*DRIVER data_in\[0\]
*CELL fd2qd1_hd
*C2_R1_C1 4.905e-03 9.100e-03 4.905e-03 
*LOADS
*RC U267:D 8.927e-05
*END

*R_NET i_CLK 3.590e-02
*DRIVER i_CLK
*CELL NULL
*C2_R1_C1 1.795e-02 0.000e+00 1.795e-02 
*LOADS
*RC clk_gate_clk_r_REG59_S7_0/latch:CK 0.000e+00
*RC clk_gate_clk_r_REG38_S9_0/latch:CK 0.000e+00
*RC clk_gate_clk_r_REG32_S7_0/latch:CK 0.000e+00
*RC clk_gate_clk_r_REG0_S1_0/latch:CK 0.000e+00
*RC clk_gate_clk_r_REG9_S5_0/latch:CK 0.000e+00
*RC clk_r_REG2_S3:CK 0.000e+00
*RC clk_r_REG75_S1:CK 0.000e+00
*RC clk_r_REG3_S4:CK 0.000e+00
*RC clk_r_REG71_S2:CK 0.000e+00
*RC clk_r_REG30_S5:CK 0.000e+00
*RC clk_r_REG34_S5:CK 0.000e+00
*RC clk_r_REG33_S8:CK 0.000e+00
*RC clk_r_REG29_S5:CK 0.000e+00
*RC clk_r_REG72_S1:CK 0.000e+00
*RC clk_r_REG70_S1:CK 0.000e+00
*RC clk_r_REG74_S2:CK 0.000e+00
*RC clk_r_REG28_S5:CK 0.000e+00
*RC async_rstn_synchronizer/r_ff_reg:CK 0.000e+00
*RC async_rstn_synchronizer/o_RSTN_reg:CK 0.000e+00
*END

*R_NET cmd_start 1.413e-02
*DRIVER cmd_start
*CELL fd2qd1_hd
*C2_R1_C1 7.065e-03 9.460e-03 7.065e-03 
*LOADS
*RC U468:A 1.337e-04
*RC U355:A 1.337e-04
*END

*R_NET cmd_read 2.455e-02
*DRIVER cmd_read
*CELL fd2qd1_hd
*C2_R1_C1 1.228e-02 1.549e-02 1.228e-02 
*LOADS
*RC U274:A 3.803e-04
*RC U925:A 3.803e-04
*RC U851:B 3.803e-04
*RC U344:A 3.803e-04
*END

*R_NET cmd_write 2.036e-02
*DRIVER cmd_write
*CELL fd2qd1_hd
*C2_R1_C1 1.018e-02 1.094e-02 1.018e-02 
*LOADS
*RC U867:B 2.227e-04
*RC U345:A 2.227e-04
*RC U344:B 2.227e-04
*END

*R_NET cmd_write_multiple 2.058e-02
*DRIVER cmd_write_multiple
*CELL fd2qd1_hd
*C2_R1_C1 1.029e-02 1.094e-02 1.029e-02 
*LOADS
*RC U244:A 2.251e-04
*RC U921:B 2.251e-04
*RC U345:B 2.251e-04
*END

*R_NET cmd_stop 1.335e-02
*DRIVER cmd_stop
*CELL fd2qd1_hd
*C2_R1_C1 6.675e-03 9.460e-03 6.675e-03 
*LOADS
*RC U245:A 1.263e-04
*RC U922:A 1.263e-04
*END

*R_NET cmd_valid 1.443e-02
*DRIVER cmd_valid
*CELL fd2qd1_hd
*C2_R1_C1 7.215e-03 9.460e-03 7.215e-03 
*LOADS
*RC U868:B 1.365e-04
*RC U352:A 1.365e-04
*END

*R_NET data_in_valid 9.050e-03
*DRIVER data_in_valid
*CELL fd2qd1_hd
*C2_R1_C1 4.525e-03 9.100e-03 4.525e-03 
*LOADS
*RC U853:B 8.236e-05
*END

*R_NET data_in_last 8.920e-03
*DRIVER data_in_last
*CELL fd2qd1_hd
*C2_R1_C1 4.460e-03 9.100e-03 4.460e-03 
*LOADS
*RC U246:B 8.117e-05
*END

*R_NET data_out_ready 8.950e-03
*DRIVER data_out_ready
*CELL fd2qd1_hd
*C2_R1_C1 4.475e-03 9.100e-03 4.475e-03 
*LOADS
*RC U536:A 8.145e-05
*END

*R_NET n271 4.620e-03
*DRIVER U96:Y
*CELL ao21d1_hd
*C2_R1_C1 2.310e-03 7.370e-03 2.310e-03 
*LOADS
*RC clk_r_REG34_S5:D 3.405e-05
*END

*R_NET n272 4.620e-03
*DRIVER U94:Y
*CELL ao21d1_hd
*C2_R1_C1 2.310e-03 7.370e-03 2.310e-03 
*LOADS
*RC clk_r_REG30_S5:D 3.405e-05
*END

*R_NET n281 4.620e-03
*DRIVER U91:Y
*CELL scg14d1_hd
*C2_R1_C1 2.310e-03 7.370e-03 2.310e-03 
*LOADS
*RC clk_r_REG33_S8:D 3.405e-05
*END

*R_NET n283 4.620e-03
*DRIVER U88:Y
*CELL scg7d1_hd
*C2_R1_C1 2.310e-03 7.370e-03 2.310e-03 
*LOADS
*RC clk_r_REG23_S4:D 3.405e-05
*END

*R_NET scl_t 1.350e-02
*DRIVER U914:Y
*CELL nid1_hd
*C2_R1_C1 6.750e-03 7.370e-03 6.750e-03 
*LOADS
*RC scl_t 9.950e-05
*END

*R_NET n284 4.610e-03
*DRIVER U70:Y
*CELL oa21d1_hd
*C2_R1_C1 2.305e-03 7.370e-03 2.305e-03 
*LOADS
*RC clk_r_REG5_S4:D 3.398e-05
*END

*R_NET sda_t 2.396e-02
*DRIVER clk_r_REG5_S4:QN
*CELL fd3d1_hd
*C2_R1_C1 1.198e-02 9.460e-03 1.198e-02 
*LOADS
*RC sda_t 2.267e-04
*RC U74:A 2.267e-04
*RC U71:A 2.267e-04
*END

*R_NET n285 4.620e-03
*DRIVER U637:Y
*CELL scg2d1_hd
*C2_R1_C1 2.310e-03 7.370e-03 2.310e-03 
*LOADS
*RC clk_r_REG4_S4:D 3.405e-05
*END

*R_NET n287 4.620e-03
*DRIVER U64:Y
*CELL scg12d1_hd
*C2_R1_C1 2.310e-03 7.370e-03 2.310e-03 
*LOADS
*RC clk_r_REG29_S5:D 3.405e-05
*END

*R_NET scl_i 4.610e-03
*DRIVER scl_i
*CELL NULL
*C2_R1_C1 2.305e-03 7.370e-03 2.305e-03 
*LOADS
*RC clk_r_REG70_S1:D 3.398e-05
*END

*R_NET sda_i 4.610e-03
*DRIVER sda_i
*CELL NULL
*C2_R1_C1 2.305e-03 7.370e-03 2.305e-03 
*LOADS
*RC clk_r_REG72_S1:D 3.398e-05
*END

*R_NET sda_posedge 5.840e-03
*DRIVER U610:Y
*CELL ad2d1_hd
*C2_R1_C1 2.920e-03 7.370e-03 2.920e-03 
*LOADS
*RC U163:A 4.304e-05
*END

*R_NET sda_negedge 9.880e-03
*DRIVER U612:Y
*CELL ad2d1_hd
*C2_R1_C1 4.940e-03 9.100e-03 4.940e-03 
*LOADS
*RC U159:B 8.991e-05
*RC U163:B 8.991e-05
*END

*R_NET last_reg 4.500e-03
*DRIVER U246:Y
*CELL scg14d1_hd
*C2_R1_C1 2.250e-03 7.370e-03 2.250e-03 
*LOADS
*RC clk_r_REG31_S6:D 3.316e-05
*END

*R_NET bit_count_reg_0_ 4.500e-03
*DRIVER U285:Y
*CELL ao22ad1_hd
*C2_R1_C1 2.250e-03 7.370e-03 2.250e-03 
*LOADS
*RC clk_r_REG57_S8:D 3.316e-05
*END

*R_NET N127 2.548e-02
*DRIVER U925:Y
*CELL xo2d1_hd
*C2_R1_C1 1.274e-02 1.549e-02 1.274e-02 
*LOADS
*RC U924:A 3.947e-04
*RC U923:B 3.947e-04
*RC U370:A 3.947e-04
*RC U354:B 3.947e-04
*RC U340:A 3.947e-04
*END

*R_NET N128 4.571e-02
*DRIVER U868:Y
*CELL ad2d1_hd
*C2_R1_C1 2.285e-02 2.066e-02 2.285e-02 
*LOADS
*RC U444:A 9.444e-04
*RC U443:B 9.444e-04
*RC U354:A 9.444e-04
*RC U325:B 9.444e-04
*RC U225:A 9.444e-04
*RC U220:A 9.444e-04
*RC U215:A 9.444e-04
*RC U59:B 9.444e-04
*END

*R_NET N129 2.091e-02
*DRIVER U922:Y
*CELL ad2d1_hd
*C2_R1_C1 1.045e-02 1.094e-02 1.045e-02 
*LOADS
*RC U923:A 2.288e-04
*RC U529:A 2.288e-04
*RC U340:B 2.288e-04
*RC U220:B 2.288e-04
*END

*R_NET N130 2.086e-02
*DRIVER U852:Y
*CELL ad2d1_hd
*C2_R1_C1 1.043e-02 1.094e-02 1.043e-02 
*LOADS
*RC U530:A 2.282e-04
*RC U443:A 2.282e-04
*RC U220:C 2.282e-04
*RC U59:C 2.282e-04
*END

*R_NET phy_start_bit 3.155e-02
*DRIVER U2:Y
*CELL nr2d1_hd
*C2_R1_C1 1.577e-02 1.674e-02 1.577e-02 
*LOADS
*RC U205:A 5.281e-04
*RC U926:A 5.281e-04
*RC U865:A 5.281e-04
*RC U627:A 5.281e-04
*RC U351:A 5.281e-04
*RC U343:B 5.281e-04
*END

*R_NET phy_stop_bit 8.790e-03
*DRIVER U60:Y
*CELL scg20d1_hd
*C2_R1_C1 4.395e-03 9.100e-03 4.395e-03 
*LOADS
*RC U362:A 7.999e-05
*RC U341:A 7.999e-05
*END

*R_NET phy_write_bit 1.445e-02
*DRIVER U57:Y
*CELL nr2bd1_hd
*C2_R1_C1 7.225e-03 9.460e-03 7.225e-03 
*LOADS
*RC U366:A 1.367e-04
*RC U350:A 1.367e-04
*RC U343:A 1.367e-04
*END

*R_NET phy_read_bit 1.445e-02
*DRIVER U62:Y
*CELL nr2d1_hd
*C2_R1_C1 7.225e-03 9.460e-03 7.225e-03 
*LOADS
*RC U365:A 1.367e-04
*RC U364:A 1.367e-04
*RC U342:A 1.367e-04
*END

*R_NET N131 5.600e-03
*DRIVER U634:Y
*CELL ad2d1_hd
*C2_R1_C1 2.800e-03 7.370e-03 2.800e-03 
*LOADS
*RC U92:C 4.127e-05
*END

*R_NET N132 5.615e-02
*DRIVER U333:Y
*CELL ad2d1_hd
*C2_R1_C1 2.808e-02 2.139e-02 2.808e-02 
*LOADS
*RC U2:B 1.201e-03
*RC U62:B 1.201e-03
*RC U60:C 1.201e-03
*RC U57:B 1.201e-03
*RC U229:B 1.201e-03
*RC U659:A 1.201e-03
*RC U500:A 1.201e-03
*RC U476:A 1.201e-03
*RC U457:A 1.201e-03
*RC U408:A 1.201e-03
*RC U396:A 1.201e-03
*END

*R_NET N137 2.398e-02
*DRIVER clk_r_REG35_S6:QN
*CELL fd3d1_hd
*C2_R1_C1 1.199e-02 1.549e-02 1.199e-02 
*LOADS
*RC U719:A 3.715e-04
*RC U716:A 3.715e-04
*RC U714:A 3.715e-04
*RC U713:A 3.715e-04
*RC U358:A 3.715e-04
*END

*R_NET N138 2.497e-02
*DRIVER clk_r_REG32_S7:QN
*CELL fd3d1_hd
*C2_R1_C1 1.248e-02 1.549e-02 1.248e-02 
*LOADS
*RC U708:B 3.868e-04
*RC U707:B 3.868e-04
*RC U706:B 3.868e-04
*RC U705:B 3.868e-04
*RC U358:B 3.868e-04
*END

*R_NET N139 4.590e-03
*DRIVER U358:Y
*CELL ad2d1_hd
*C2_R1_C1 2.295e-03 7.370e-03 2.295e-03 
*LOADS
*RC U854:A 3.383e-05
*END

*R_NET N140 4.740e-03
*DRIVER U359:Y
*CELL ad2d1_hd
*C2_R1_C1 2.370e-03 7.370e-03 2.370e-03 
*LOADS
*RC U854:B 3.493e-05
*END

*R_NET N141 4.777e-02
*DRIVER U854:Y
*CELL ad2d1_hd
*C2_R1_C1 2.389e-02 2.090e-02 2.389e-02 
*LOADS
*RC U458:A 9.986e-04
*RC U409:A 9.986e-04
*RC U400:B 9.986e-04
*RC U397:A 9.986e-04
*RC U372:A 9.986e-04
*RC U369:B 9.986e-04
*RC U318:A 9.986e-04
*RC U292:B 9.986e-04
*RC U6:B 9.986e-04
*END

*R_NET N142 4.980e-03
*DRIVER U715:Y
*CELL or2d1_hd
*C2_R1_C1 2.490e-03 7.370e-03 2.490e-03 
*LOADS
*RC U445:A 3.670e-05
*END

*R_NET N143 5.190e-03
*DRIVER U446:Y
*CELL or2d1_hd
*C2_R1_C1 2.595e-03 7.370e-03 2.595e-03 
*LOADS
*RC U445:B 3.825e-05
*END

*R_NET N144 2.764e-02
*DRIVER U445:Y
*CELL or2d1_hd
*C2_R1_C1 1.382e-02 1.549e-02 1.382e-02 
*LOADS
*RC U870:A 4.281e-04
*RC U301:B 4.281e-04
*RC U225:C 4.281e-04
*RC U222:B 4.281e-04
*RC U5:B 4.281e-04
*END

*R_NET N145 3.371e-02
*DRIVER U870:Y
*CELL ivd1_hd
*C2_R1_C1 1.686e-02 1.715e-02 1.686e-02 
*LOADS
*RC U463:A 5.781e-04
*RC U456:A 5.781e-04
*RC U430:A 5.781e-04
*RC U400:A 5.781e-04
*RC U347:C 5.781e-04
*RC U324:B 5.781e-04
*RC U97:A 5.781e-04
*END

*R_NET N146 5.520e-03
*DRIVER U717:Y
*CELL or2d1_hd
*C2_R1_C1 2.760e-03 7.370e-03 2.760e-03 
*LOADS
*RC U872:A 4.068e-05
*END

*R_NET N147 5.640e-03
*DRIVER U419:Y
*CELL or2d1_hd
*C2_R1_C1 2.820e-03 7.370e-03 2.820e-03 
*LOADS
*RC U872:B 4.157e-05
*END

*R_NET N150 5.520e-03
*DRIVER U718:Y
*CELL or2d1_hd
*C2_R1_C1 2.760e-03 7.370e-03 2.760e-03 
*LOADS
*RC U869:A 4.068e-05
*END

*R_NET N151 5.640e-03
*DRIVER U532:Y
*CELL or2d1_hd
*C2_R1_C1 2.820e-03 7.370e-03 2.820e-03 
*LOADS
*RC U869:B 4.157e-05
*END

*R_NET N154 5.520e-03
*DRIVER U707:Y
*CELL or2d1_hd
*C2_R1_C1 2.760e-03 7.370e-03 2.760e-03 
*LOADS
*RC U335:A 4.068e-05
*END

*R_NET N155 5.640e-03
*DRIVER U533:Y
*CELL or2d1_hd
*C2_R1_C1 2.820e-03 7.370e-03 2.820e-03 
*LOADS
*RC U335:B 4.157e-05
*END

*R_NET N158 5.520e-03
*DRIVER U708:Y
*CELL or2d1_hd
*C2_R1_C1 2.760e-03 7.370e-03 2.760e-03 
*LOADS
*RC U336:A 4.068e-05
*END

*R_NET N159 5.640e-03
*DRIVER U528:Y
*CELL or2d1_hd
*C2_R1_C1 2.820e-03 7.370e-03 2.820e-03 
*LOADS
*RC U336:B 4.157e-05
*END

*R_NET N162 5.520e-03
*DRIVER U706:Y
*CELL or2d1_hd
*C2_R1_C1 2.760e-03 7.370e-03 2.760e-03 
*LOADS
*RC U339:A 4.068e-05
*END

*R_NET N163 5.640e-03
*DRIVER U556:Y
*CELL or2d1_hd
*C2_R1_C1 2.820e-03 7.370e-03 2.820e-03 
*LOADS
*RC U339:B 4.157e-05
*END

*R_NET N166 5.520e-03
*DRIVER U705:Y
*CELL or2d1_hd
*C2_R1_C1 2.760e-03 7.370e-03 2.760e-03 
*LOADS
*RC U488:A 4.068e-05
*END

*R_NET N167 5.640e-03
*DRIVER U489:Y
*CELL or2d1_hd
*C2_R1_C1 2.820e-03 7.370e-03 2.820e-03 
*LOADS
*RC U488:B 4.157e-05
*END

*R_NET N170 4.980e-03
*DRIVER U716:Y
*CELL or2d1_hd
*C2_R1_C1 2.490e-03 7.370e-03 2.490e-03 
*LOADS
*RC U471:A 3.670e-05
*END

*R_NET N171 5.190e-03
*DRIVER U472:Y
*CELL or2d1_hd
*C2_R1_C1 2.595e-03 7.370e-03 2.595e-03 
*LOADS
*RC U471:B 3.825e-05
*END

*R_NET N172 2.261e-02
*DRIVER U471:Y
*CELL or2d1_hd
*C2_R1_C1 1.130e-02 1.094e-02 1.130e-02 
*LOADS
*RC U871:A 2.474e-04
*RC U286:B 2.474e-04
*RC U226:B 2.474e-04
*RC U3:B 2.474e-04
*END

*R_NET N173 2.950e-02
*DRIVER U871:Y
*CELL ivd1_hd
*C2_R1_C1 1.475e-02 1.674e-02 1.475e-02 
*LOADS
*RC U598:A 4.938e-04
*RC U585:A 4.938e-04
*RC U562:A 4.938e-04
*RC U504:A 4.938e-04
*RC U437:B 4.938e-04
*RC U202:C 4.938e-04
*END

*R_NET N174 5.520e-03
*DRIVER U714:Y
*CELL or2d1_hd
*C2_R1_C1 2.760e-03 7.370e-03 2.760e-03 
*LOADS
*RC U554:A 4.068e-05
*END

*R_NET N175 5.640e-03
*DRIVER U555:Y
*CELL or2d1_hd
*C2_R1_C1 2.820e-03 7.370e-03 2.820e-03 
*LOADS
*RC U554:B 4.157e-05
*END

*R_NET N178 7.560e-03
*DRIVER U719:Y
*CELL or2d1_hd
*C2_R1_C1 3.780e-03 7.370e-03 3.780e-03 
*LOADS
*RC U52:A 5.572e-05
*END

*R_NET N179 8.130e-03
*DRIVER U373:Y
*CELL or2d1_hd
*C2_R1_C1 4.065e-03 7.370e-03 4.065e-03 
*LOADS
*RC U52:B 5.992e-05
*END

*R_NET N182 5.520e-03
*DRIVER U713:Y
*CELL or2d1_hd
*C2_R1_C1 2.760e-03 7.370e-03 2.760e-03 
*LOADS
*RC U855:A 4.068e-05
*END

*R_NET N183 5.640e-03
*DRIVER U499:Y
*CELL or2d1_hd
*C2_R1_C1 2.820e-03 7.370e-03 2.820e-03 
*LOADS
*RC U855:B 4.157e-05
*END

*R_NET N229 5.190e-03
*DRIVER U531:Y
*CELL ivd1_hd
*C2_R1_C1 2.595e-03 7.370e-03 2.595e-03 
*LOADS
*RC U530:B 3.825e-05
*END

*R_NET N232 1.095e-02
*DRIVER U851:Y
*CELL or2d1_hd
*C2_R1_C1 5.475e-03 9.100e-03 5.475e-03 
*LOADS
*RC U299:A 9.965e-05
*RC U279:B 9.965e-05
*END

*R_NET N249 5.830e-03
*DRIVER U924:Y
*CELL ivd1_hd
*C2_R1_C1 2.915e-03 7.370e-03 2.915e-03 
*LOADS
*RC U325:A 4.297e-05
*END

*R_NET N255 4.720e-03
*DRIVER U370:Y
*CELL or2d1_hd
*C2_R1_C1 2.360e-03 7.370e-03 2.360e-03 
*LOADS
*RC U225:B 3.479e-05
*END

*R_NET N278 1.640e-02
*DRIVER U867:Y
*CELL or2d1_hd
*C2_R1_C1 8.200e-03 9.460e-03 8.200e-03 
*LOADS
*RC U294:B 1.551e-04
*RC U278:B 1.551e-04
*RC U216:A 1.551e-04
*END

*R_NET N312 5.830e-03
*DRIVER U340:Y
*CELL or2d1_hd
*C2_R1_C1 2.915e-03 7.370e-03 2.915e-03 
*LOADS
*RC U59:A 4.297e-05
*END

*R_NET N354 4.730e-03
*DRIVER U689:Y
*CELL xn2d1_hd
*C2_R1_C1 2.365e-03 7.370e-03 2.365e-03 
*LOADS
*RC U615:A 3.486e-05
*END

*R_NET N355 4.730e-03
*DRIVER U614:Y
*CELL xn2d1_hd
*C2_R1_C1 2.365e-03 7.370e-03 2.365e-03 
*LOADS
*RC U613:A 3.486e-05
*END

*R_NET N356 5.830e-03
*DRIVER U656:Y
*CELL xn2d1_hd
*C2_R1_C1 2.915e-03 7.370e-03 2.915e-03 
*LOADS
*RC U273:C 4.297e-05
*END

*R_NET N357 1.505e-02
*DRIVER gt_x_2_U4:Y
*CELL oa21d1_hd
*C2_R1_C1 7.525e-03 9.460e-03 7.525e-03 
*LOADS
*RC U436:A 1.424e-04
*RC U368:B 1.424e-04
*RC U353:A 1.424e-04
*END

*R_NET N358 3.074e-02
*DRIVER gt_x_195_U4:Y
*CELL oa21d1_hd
*C2_R1_C1 1.537e-02 1.674e-02 1.537e-02 
*LOADS
*RC U501:A 5.146e-04
*RC U437:A 5.146e-04
*RC U407:A 5.146e-04
*RC U368:A 5.146e-04
*RC U243:A 5.146e-04
*RC U226:A 5.146e-04
*END

*R_NET N361 5.910e-03
*DRIVER U353:Y
*CELL or2d1_hd
*C2_R1_C1 2.955e-03 7.370e-03 2.955e-03 
*LOADS
*RC U224:B 4.356e-05
*END

*R_NET N377 9.570e-03
*DRIVER U853:Y
*CELL ad2d1_hd
*C2_R1_C1 4.785e-03 9.100e-03 4.785e-03 
*LOADS
*RC U297:B 8.709e-05
*RC U277:A 8.709e-05
*END

*R_NET N402 1.550e-02
*DRIVER U441:Y
*CELL ad2d1_hd
*C2_R1_C1 7.750e-03 9.460e-03 7.750e-03 
*LOADS
*RC U894:B 1.466e-04
*RC U535:A 1.466e-04
*RC U440:A 1.466e-04
*END

*R_NET N405 5.190e-03
*DRIVER U535:Y
*CELL or2d1_hd
*C2_R1_C1 2.595e-03 7.370e-03 2.595e-03 
*LOADS
*RC U534:B 3.825e-05
*END

*R_NET N407 4.730e-03
*DRIVER U348:Y
*CELL ad2d1_hd
*C2_R1_C1 2.365e-03 7.370e-03 2.365e-03 
*LOADS
*RC U347:A 3.486e-05
*END

*R_NET N497 1.004e-02
*DRIVER U407:Y
*CELL ad2d1_hd
*C2_R1_C1 5.020e-03 9.100e-03 5.020e-03 
*LOADS
*RC U353:B 9.136e-05
*RC U77:B 9.136e-05
*END

*R_NET N498 1.445e-02
*DRIVER U920:Y
*CELL nd4d1_hd
*C2_R1_C1 7.225e-03 9.460e-03 7.225e-03 
*LOADS
*RC U187:A 1.367e-04
*RC U759:A 1.367e-04
*RC U507:A 1.367e-04
*END

*R_NET N503 4.710e-03
*DRIVER U635:Y
*CELL ad2d1_hd
*C2_R1_C1 2.355e-03 7.370e-03 2.355e-03 
*LOADS
*RC U100:B 3.471e-05
*END

*R_NET N506 1.093e-02
*DRIVER sub_x_144/U95:Y
*CELL ivd1_hd
*C2_R1_C1 5.465e-03 9.100e-03 5.465e-03 
*LOADS
*RC sub_x_144/U63:B 9.946e-05
*RC U374:B 9.946e-05
*END

*R_NET N507 5.900e-03
*DRIVER sub_x_144/U63:Y
*CELL ao22d1_hd
*C2_R1_C1 2.950e-03 7.370e-03 2.950e-03 
*LOADS
*RC U165:D 4.348e-05
*END

*R_NET N508 5.900e-03
*DRIVER sub_x_144/U61:Y
*CELL ao22d1_hd
*C2_R1_C1 2.950e-03 7.370e-03 2.950e-03 
*LOADS
*RC U161:D 4.348e-05
*END

*R_NET N509 5.900e-03
*DRIVER sub_x_144/U58:Y
*CELL ao22d1_hd
*C2_R1_C1 2.950e-03 7.370e-03 2.950e-03 
*LOADS
*RC U157:D 4.348e-05
*END

*R_NET N510 5.900e-03
*DRIVER sub_x_144/U56:Y
*CELL ao22d1_hd
*C2_R1_C1 2.950e-03 7.370e-03 2.950e-03 
*LOADS
*RC U153:D 4.348e-05
*END

*R_NET N511 5.900e-03
*DRIVER sub_x_144/U53:Y
*CELL ao22d1_hd
*C2_R1_C1 2.950e-03 7.370e-03 2.950e-03 
*LOADS
*RC U149:D 4.348e-05
*END

*R_NET N512 5.900e-03
*DRIVER sub_x_144/U51:Y
*CELL ao22d1_hd
*C2_R1_C1 2.950e-03 7.370e-03 2.950e-03 
*LOADS
*RC U145:D 4.348e-05
*END

*R_NET N513 5.900e-03
*DRIVER sub_x_144/U48:Y
*CELL ao22d1_hd
*C2_R1_C1 2.950e-03 7.370e-03 2.950e-03 
*LOADS
*RC U141:D 4.348e-05
*END

*R_NET N514 5.900e-03
*DRIVER sub_x_144/U46:Y
*CELL ao22d1_hd
*C2_R1_C1 2.950e-03 7.370e-03 2.950e-03 
*LOADS
*RC U137:D 4.348e-05
*END

*R_NET N515 5.900e-03
*DRIVER sub_x_144/U43:Y
*CELL ao22d1_hd
*C2_R1_C1 2.950e-03 7.370e-03 2.950e-03 
*LOADS
*RC U133:D 4.348e-05
*END

*R_NET N516 5.900e-03
*DRIVER sub_x_144/U83:Y
*CELL ao22d1_hd
*C2_R1_C1 2.950e-03 7.370e-03 2.950e-03 
*LOADS
*RC U129:D 4.348e-05
*END

*R_NET N517 5.900e-03
*DRIVER sub_x_144/U80:Y
*CELL ao22d1_hd
*C2_R1_C1 2.950e-03 7.370e-03 2.950e-03 
*LOADS
*RC U125:D 4.348e-05
*END

*R_NET N518 5.900e-03
*DRIVER sub_x_144/U76:Y
*CELL ao22d1_hd
*C2_R1_C1 2.950e-03 7.370e-03 2.950e-03 
*LOADS
*RC U121:D 4.348e-05
*END

*R_NET N519 5.900e-03
*DRIVER sub_x_144/U73:Y
*CELL ao22d1_hd
*C2_R1_C1 2.950e-03 7.370e-03 2.950e-03 
*LOADS
*RC U117:D 4.348e-05
*END

*R_NET N520 5.900e-03
*DRIVER sub_x_144/U69:Y
*CELL ao22d1_hd
*C2_R1_C1 2.950e-03 7.370e-03 2.950e-03 
*LOADS
*RC U113:D 4.348e-05
*END

*R_NET N521 5.900e-03
*DRIVER sub_x_144/U66:Y
*CELL ao22d1_hd
*C2_R1_C1 2.950e-03 7.370e-03 2.950e-03 
*LOADS
*RC U109:D 4.348e-05
*END

*R_NET N522 5.190e-03
*DRIVER sub_x_144/U35:Y
*CELL xo2d1_hd
*C2_R1_C1 2.595e-03 7.370e-03 2.595e-03 
*LOADS
*RC U618:B 3.825e-05
*END

*R_NET N524 5.787e-02
*DRIVER clk_r_REG24_S4:QN
*CELL fd3d1_hd
*C2_R1_C1 2.894e-02 2.163e-02 2.894e-02 
*LOADS
*RC U23:A 1.252e-03
*RC U169:A 1.252e-03
*RC U170:C 1.252e-03
*RC U205:B 1.252e-03
*RC U755:A 1.252e-03
*RC U753:A 1.252e-03
*RC U751:A 1.252e-03
*RC U749:A 1.252e-03
*RC U543:A 1.252e-03
*RC U539:A 1.252e-03
*RC U526:A 1.252e-03
*RC U523:A 1.252e-03
*END

*R_NET N525 5.974e-02
*DRIVER clk_r_REG0_S1:QN
*CELL fd3d1_hd
*C2_R1_C1 2.987e-02 2.163e-02 2.987e-02 
*LOADS
*RC U173:B 1.292e-03
*RC U175:A 1.292e-03
*RC U179:A 1.292e-03
*RC U186:A 1.292e-03
*RC U744:B 1.292e-03
*RC U743:B 1.292e-03
*RC U742:B 1.292e-03
*RC U741:B 1.292e-03
*RC U543:B 1.292e-03
*RC U539:B 1.292e-03
*RC U526:B 1.292e-03
*RC U523:B 1.292e-03
*END

*R_NET N526 5.715e-02
*DRIVER clk_r_REG27_S4:QN
*CELL fd3d1_hd
*C2_R1_C1 2.858e-02 2.163e-02 2.858e-02 
*LOADS
*RC U175:D 1.237e-03
*RC U179:B 1.237e-03
*RC U186:B 1.237e-03
*RC U205:C 1.237e-03
*RC U544:A 1.237e-03
*RC U527:A 1.237e-03
*RC U524:A 1.237e-03
*RC U454:A 1.237e-03
*RC U452:A 1.237e-03
*RC U451:A 1.237e-03
*RC U448:A 1.237e-03
*RC U439:A 1.237e-03
*END

*R_NET N527 4.590e-03
*DRIVER U543:Y
*CELL ad2d1_hd
*C2_R1_C1 2.295e-03 7.370e-03 2.295e-03 
*LOADS
*RC U856:A 3.383e-05
*END

*R_NET N528 4.740e-03
*DRIVER U544:Y
*CELL ad2d1_hd
*C2_R1_C1 2.370e-03 7.370e-03 2.370e-03 
*LOADS
*RC U856:B 3.493e-05
*END

*R_NET N529 2.415e-02
*DRIVER U856:Y
*CELL ad2d1_hd
*C2_R1_C1 1.207e-02 1.549e-02 1.207e-02 
*LOADS
*RC U379:A 3.741e-04
*RC U183:AN 3.741e-04
*RC U178:A 3.741e-04
*RC U14:A 3.741e-04
*RC U11:C 3.741e-04
*END

*R_NET N530 5.520e-03
*DRIVER U754:Y
*CELL or2d1_hd
*C2_R1_C1 2.760e-03 7.370e-03 2.760e-03 
*LOADS
*RC U884:A 4.068e-05
*END

*R_NET N531 5.640e-03
*DRIVER U733:Y
*CELL or2d1_hd
*C2_R1_C1 2.820e-03 7.370e-03 2.820e-03 
*LOADS
*RC U884:B 4.157e-05
*END

*R_NET N534 4.980e-03
*DRIVER U752:Y
*CELL or2d1_hd
*C2_R1_C1 2.490e-03 7.370e-03 2.490e-03 
*LOADS
*RC U450:A 3.670e-05
*END

*R_NET N535 5.190e-03
*DRIVER U451:Y
*CELL or2d1_hd
*C2_R1_C1 2.595e-03 7.370e-03 2.595e-03 
*LOADS
*RC U450:B 3.825e-05
*END

*R_NET N536 1.584e-02
*DRIVER U450:Y
*CELL or2d1_hd
*C2_R1_C1 7.920e-03 9.460e-03 7.920e-03 
*LOADS
*RC U876:A 1.498e-04
*RC U553:B 1.498e-04
*RC U22:C 1.498e-04
*END

*R_NET N537 2.232e-02
*DRIVER U876:Y
*CELL ivd1_hd
*C2_R1_C1 1.116e-02 1.094e-02 1.116e-02 
*LOADS
*RC U636:A 2.442e-04
*RC U383:A 2.442e-04
*RC U32:B 2.442e-04
*RC U30:B 2.442e-04
*END

*R_NET N538 5.520e-03
*DRIVER U750:Y
*CELL or2d1_hd
*C2_R1_C1 2.760e-03 7.370e-03 2.760e-03 
*LOADS
*RC U857:A 4.068e-05
*END

*R_NET N539 5.640e-03
*DRIVER U448:Y
*CELL or2d1_hd
*C2_R1_C1 2.820e-03 7.370e-03 2.820e-03 
*LOADS
*RC U857:B 4.157e-05
*END

*R_NET N542 5.520e-03
*DRIVER U743:Y
*CELL or2d1_hd
*C2_R1_C1 2.760e-03 7.370e-03 2.760e-03 
*LOADS
*RC U881:A 4.068e-05
*END

*R_NET N543 5.640e-03
*DRIVER U732:Y
*CELL or2d1_hd
*C2_R1_C1 2.820e-03 7.370e-03 2.820e-03 
*LOADS
*RC U881:B 4.157e-05
*END

*R_NET N546 5.520e-03
*DRIVER U742:Y
*CELL or2d1_hd
*C2_R1_C1 2.760e-03 7.370e-03 2.760e-03 
*LOADS
*RC U847:A 4.068e-05
*END

*R_NET N547 5.640e-03
*DRIVER U730:Y
*CELL or2d1_hd
*C2_R1_C1 2.820e-03 7.370e-03 2.820e-03 
*LOADS
*RC U847:B 4.157e-05
*END

*R_NET N550 4.980e-03
*DRIVER U741:Y
*CELL or2d1_hd
*C2_R1_C1 2.490e-03 7.370e-03 2.490e-03 
*LOADS
*RC U453:A 3.670e-05
*END

*R_NET N551 5.190e-03
*DRIVER U454:Y
*CELL or2d1_hd
*C2_R1_C1 2.595e-03 7.370e-03 2.595e-03 
*LOADS
*RC U453:B 3.825e-05
*END

*R_NET N552 1.611e-02
*DRIVER U453:Y
*CELL or2d1_hd
*C2_R1_C1 8.055e-03 9.460e-03 8.055e-03 
*LOADS
*RC U891:A 1.524e-04
*RC U17:C 1.524e-04
*RC U7:B 1.524e-04
*END

*R_NET N553 2.645e-02
*DRIVER U891:Y
*CELL ivd1_hd
*C2_R1_C1 1.323e-02 1.549e-02 1.323e-02 
*LOADS
*RC U518:A 4.097e-04
*RC U636:B 4.097e-04
*RC U395:A 4.097e-04
*RC U32:A 4.097e-04
*RC U30:A 4.097e-04
*END

*R_NET N554 5.520e-03
*DRIVER U744:Y
*CELL or2d1_hd
*C2_R1_C1 2.760e-03 7.370e-03 2.760e-03 
*LOADS
*RC U880:A 4.068e-05
*END

*R_NET N555 5.640e-03
*DRIVER U439:Y
*CELL or2d1_hd
*C2_R1_C1 2.820e-03 7.370e-03 2.820e-03 
*LOADS
*RC U880:B 4.157e-05
*END

*R_NET N558 5.520e-03
*DRIVER U749:Y
*CELL or2d1_hd
*C2_R1_C1 2.760e-03 7.370e-03 2.760e-03 
*LOADS
*RC U892:A 4.068e-05
*END

*R_NET N559 5.640e-03
*DRIVER U728:Y
*CELL or2d1_hd
*C2_R1_C1 2.820e-03 7.370e-03 2.820e-03 
*LOADS
*RC U892:B 4.157e-05
*END

*R_NET N562 5.520e-03
*DRIVER U753:Y
*CELL or2d1_hd
*C2_R1_C1 2.760e-03 7.370e-03 2.760e-03 
*LOADS
*RC U878:A 4.068e-05
*END

*R_NET N563 5.640e-03
*DRIVER U734:Y
*CELL or2d1_hd
*C2_R1_C1 2.820e-03 7.370e-03 2.820e-03 
*LOADS
*RC U878:B 4.157e-05
*END

*R_NET N566 5.520e-03
*DRIVER U751:Y
*CELL or2d1_hd
*C2_R1_C1 2.760e-03 7.370e-03 2.760e-03 
*LOADS
*RC U841:A 4.068e-05
*END

*R_NET N567 5.640e-03
*DRIVER U524:Y
*CELL or2d1_hd
*C2_R1_C1 2.820e-03 7.370e-03 2.820e-03 
*LOADS
*RC U841:B 4.157e-05
*END

*R_NET N570 5.520e-03
*DRIVER U755:Y
*CELL or2d1_hd
*C2_R1_C1 2.760e-03 7.370e-03 2.760e-03 
*LOADS
*RC U846:A 4.068e-05
*END

*R_NET N571 5.640e-03
*DRIVER U452:Y
*CELL or2d1_hd
*C2_R1_C1 2.820e-03 7.370e-03 2.820e-03 
*LOADS
*RC U846:B 4.157e-05
*END

*R_NET N574 5.520e-03
*DRIVER U523:Y
*CELL or2d1_hd
*C2_R1_C1 2.760e-03 7.370e-03 2.760e-03 
*LOADS
*RC U522:A 4.068e-05
*END

*R_NET N575 5.640e-03
*DRIVER U731:Y
*CELL or2d1_hd
*C2_R1_C1 2.820e-03 7.370e-03 2.820e-03 
*LOADS
*RC U522:B 4.157e-05
*END

*R_NET N578 5.520e-03
*DRIVER U539:Y
*CELL or2d1_hd
*C2_R1_C1 2.760e-03 7.370e-03 2.760e-03 
*LOADS
*RC U538:A 4.068e-05
*END

*R_NET N579 5.640e-03
*DRIVER U729:Y
*CELL or2d1_hd
*C2_R1_C1 2.820e-03 7.370e-03 2.820e-03 
*LOADS
*RC U538:B 4.157e-05
*END

*R_NET N582 5.520e-03
*DRIVER U526:Y
*CELL or2d1_hd
*C2_R1_C1 2.760e-03 7.370e-03 2.760e-03 
*LOADS
*RC U338:A 4.068e-05
*END

*R_NET N583 5.640e-03
*DRIVER U527:Y
*CELL or2d1_hd
*C2_R1_C1 2.820e-03 7.370e-03 2.820e-03 
*LOADS
*RC U338:B 4.157e-05
*END

*R_NET N586 4.590e-03
*DRIVER U748:Y
*CELL ad2d1_hd
*C2_R1_C1 2.295e-03 7.370e-03 2.295e-03 
*LOADS
*RC U589:A 3.383e-05
*END

*R_NET N587 4.740e-03
*DRIVER U727:Y
*CELL ad2d1_hd
*C2_R1_C1 2.370e-03 7.370e-03 2.370e-03 
*LOADS
*RC U589:B 3.493e-05
*END

*R_NET N588 2.505e-02
*DRIVER U589:Y
*CELL ad2d1_hd
*C2_R1_C1 1.252e-02 1.549e-02 1.252e-02 
*LOADS
*RC U898:D 3.880e-04
*RC U679:A 3.880e-04
*RC U546:C 3.880e-04
*RC U519:B 3.880e-04
*RC U447:B 3.880e-04
*END

*R_NET N610 5.290e-03
*DRIVER U361:Y
*CELL ivd1_hd
*C2_R1_C1 2.645e-03 7.370e-03 2.645e-03 
*LOADS
*RC U623:C 3.899e-05
*END

*R_NET N629 4.710e-03
*DRIVER U623:Y
*CELL or3d1_hd
*C2_R1_C1 2.355e-03 7.370e-03 2.355e-03 
*LOADS
*RC U189:B 3.471e-05
*END

*R_NET N630 4.730e-03
*DRIVER U627:Y
*CELL or2d1_hd
*C2_R1_C1 2.365e-03 7.370e-03 2.365e-03 
*LOADS
*RC U190:D 3.486e-05
*END

*R_NET N631 5.910e-03
*DRIVER U621:Y
*CELL or2d1_hd
*C2_R1_C1 2.955e-03 7.370e-03 2.955e-03 
*LOADS
*RC U200:B 4.356e-05
*END

*R_NET N632 4.730e-03
*DRIVER U625:Y
*CELL or2d1_hd
*C2_R1_C1 2.365e-03 7.370e-03 2.365e-03 
*LOADS
*RC U185:D 3.486e-05
*END

*R_NET N693 2.156e-02
*DRIVER U366:Y
*CELL ad2d1_hd
*C2_R1_C1 1.078e-02 1.094e-02 1.078e-02 
*LOADS
*RC U926:B 2.359e-04
*RC U627:B 2.359e-04
*RC U621:A 2.359e-04
*RC U75:C 2.359e-04
*END

*R_NET N696 2.156e-02
*DRIVER U365:Y
*CELL ad2d1_hd
*C2_R1_C1 1.078e-02 1.094e-02 1.078e-02 
*LOADS
*RC U926:C 2.359e-04
*RC U865:B 2.359e-04
*RC U625:A 2.359e-04
*RC U623:A 2.359e-04
*END

*R_NET N699 2.138e-02
*DRIVER U362:Y
*CELL ad2d1_hd
*C2_R1_C1 1.069e-02 1.094e-02 1.069e-02 
*LOADS
*RC U926:D 2.339e-04
*RC U625:B 2.339e-04
*RC U623:B 2.339e-04
*RC U621:B 2.339e-04
*END

*R_NET w_rstn 4.874e-02
*DRIVER async_rstn_synchronizer/o_RSTN_reg:Q
*CELL fd2qd1_hd
*C2_R1_C1 2.437e-02 2.090e-02 2.437e-02 
*LOADS
*RC U8:D 1.019e-03
*RC U159:A 1.019e-03
*RC u_cell_6241:B 1.019e-03
*RC U557:A 1.019e-03
*RC U449:A 1.019e-03
*RC U231:A 1.019e-03
*RC U104:A 1.019e-03
*RC U92:D 1.019e-03
*RC U67:A 1.019e-03
*END

*R_NET N701 4.590e-03
*DRIVER U686:Y
*CELL or2d1_hd
*C2_R1_C1 2.295e-03 7.370e-03 2.295e-03 
*LOADS
*RC u_cell_6241:A 3.383e-05
*END

*R_NET N907 5.190e-03
*DRIVER U711:Y
*CELL or2d1_hd
*C2_R1_C1 2.595e-03 7.370e-03 2.595e-03 
*LOADS
*RC U605:B 3.825e-05
*END

*R_NET N908 5.640e-03
*DRIVER U605:Y
*CELL or2d1_hd
*C2_R1_C1 2.820e-03 7.370e-03 2.820e-03 
*LOADS
*RC U911:B 4.157e-05
*END

*R_NET N911 4.411e-02
*DRIVER clk_r_REG53_S6:QN
*CELL fd3d1_hd
*C2_R1_C1 2.206e-02 2.066e-02 2.206e-02 
*LOADS
*RC U864:A 9.113e-04
*RC U555:B 9.113e-04
*RC U532:B 9.113e-04
*RC U528:B 9.113e-04
*RC U499:B 9.113e-04
*RC U489:B 9.113e-04
*RC U446:B 9.113e-04
*RC U359:B 9.113e-04
*END

*R_NET N913 5.190e-03
*DRIVER U712:Y
*CELL or2d1_hd
*C2_R1_C1 2.595e-03 7.370e-03 2.595e-03 
*LOADS
*RC U505:B 3.825e-05
*END

*R_NET N914 5.640e-03
*DRIVER U505:Y
*CELL or2d1_hd
*C2_R1_C1 2.820e-03 7.370e-03 2.820e-03 
*LOADS
*RC U864:B 4.157e-05
*END

*R_NET N917 4.216e-02
*DRIVER clk_r_REG54_S1:QN
*CELL fd3d1_hd
*C2_R1_C1 2.108e-02 2.066e-02 2.108e-02 
*LOADS
*RC U606:A 8.710e-04
*RC U556:A 8.710e-04
*RC U532:A 8.710e-04
*RC U499:A 8.710e-04
*RC U489:A 8.710e-04
*RC U419:A 8.710e-04
*RC U373:A 8.710e-04
*RC U359:A 8.710e-04
*END

*R_NET N919 5.190e-03
*DRIVER U710:Y
*CELL or2d1_hd
*C2_R1_C1 2.595e-03 7.370e-03 2.595e-03 
*LOADS
*RC U606:B 3.825e-05
*END

*R_NET N920 5.640e-03
*DRIVER U606:Y
*CELL or2d1_hd
*C2_R1_C1 2.820e-03 7.370e-03 2.820e-03 
*LOADS
*RC U909:B 4.157e-05
*END

*R_NET N924 5.190e-03
*DRIVER U747:Y
*CELL or2d1_hd
*C2_R1_C1 2.595e-03 7.370e-03 2.595e-03 
*LOADS
*RC U726:B 3.825e-05
*END

*R_NET N925 5.640e-03
*DRIVER U726:Y
*CELL or2d1_hd
*C2_R1_C1 2.820e-03 7.370e-03 2.820e-03 
*LOADS
*RC U910:B 4.157e-05
*END

*R_NET N928 6.707e-02
*DRIVER clk_r_REG25_S4:QN
*CELL fd3d1_hd
*C2_R1_C1 3.353e-02 2.212e-02 3.353e-02 
*LOADS
*RC U23:B 1.484e-03
*RC U169:D 1.484e-03
*RC U196:A 1.484e-03
*RC U200:C 1.484e-03
*RC U862:A 1.484e-03
*RC U734:B 1.484e-03
*RC U733:B 1.484e-03
*RC U730:B 1.484e-03
*RC U729:B 1.484e-03
*RC U609:A 1.484e-03
*RC U544:B 1.484e-03
*RC U452:B 1.484e-03
*RC U448:B 1.484e-03
*RC U439:B 1.484e-03
*END
