*SPEF "IEEE 1481-1999"
*DESIGN "iir_lpf"
*DATE "Wed Jun 17 12:54:24 2020"
*VENDOR "SYNOPSYS INC"
*PROGRAM "Synopsys Design Compiler cmos"
*VERSION "F-2011.09-SP5-3"
*DESIGN_FLOW "SYNTHESIS"
*DIVIDER /
*DELIMITER :
*BUS_DELIMITER []
*T_UNIT 1.0 NS
*C_UNIT 1.0 PF
*R_UNIT 1.0 KOHM
*L_UNIT 1.0 HENRY

*PORTS

i_X_DATA\[31\] I *L 0.000e+00 *S 0.000e+00 0.000e+00 
i_X_DATA\[30\] I *L 0.000e+00 *S 0.000e+00 0.000e+00 
i_X_DATA\[29\] I *L 0.000e+00 *S 0.000e+00 0.000e+00 
i_X_DATA\[28\] I *L 0.000e+00 *S 0.000e+00 0.000e+00 
i_X_DATA\[27\] I *L 0.000e+00 *S 0.000e+00 0.000e+00 
i_X_DATA\[26\] I *L 0.000e+00 *S 0.000e+00 0.000e+00 
i_X_DATA\[25\] I *L 0.000e+00 *S 0.000e+00 0.000e+00 
i_X_DATA\[24\] I *L 0.000e+00 *S 0.000e+00 0.000e+00 
i_X_DATA\[23\] I *L 0.000e+00 *S 0.000e+00 0.000e+00 
i_X_DATA\[22\] I *L 0.000e+00 *S 0.000e+00 0.000e+00 
i_X_DATA\[21\] I *L 0.000e+00 *S 0.000e+00 0.000e+00 
i_X_DATA\[20\] I *L 0.000e+00 *S 0.000e+00 0.000e+00 
i_X_DATA\[19\] I *L 0.000e+00 *S 0.000e+00 0.000e+00 
i_X_DATA\[18\] I *L 0.000e+00 *S 0.000e+00 0.000e+00 
i_X_DATA\[17\] I *L 0.000e+00 *S 0.000e+00 0.000e+00 
i_X_DATA\[16\] I *L 0.000e+00 *S 0.000e+00 0.000e+00 
i_X_DATA\[15\] I *L 0.000e+00 *S 0.000e+00 0.000e+00 
i_X_DATA\[14\] I *L 0.000e+00 *S 0.000e+00 0.000e+00 
i_X_DATA\[13\] I *L 0.000e+00 *S 0.000e+00 0.000e+00 
i_X_DATA\[12\] I *L 0.000e+00 *S 0.000e+00 0.000e+00 
i_X_DATA\[11\] I *L 0.000e+00 *S 0.000e+00 0.000e+00 
i_X_DATA\[10\] I *L 0.000e+00 *S 0.000e+00 0.000e+00 
i_X_DATA\[9\] I *L 0.000e+00 *S 0.000e+00 0.000e+00 
i_X_DATA\[8\] I *L 0.000e+00 *S 0.000e+00 0.000e+00 
i_X_DATA\[7\] I *L 0.000e+00 *S 0.000e+00 0.000e+00 
i_X_DATA\[6\] I *L 0.000e+00 *S 0.000e+00 0.000e+00 
i_X_DATA\[5\] I *L 0.000e+00 *S 0.000e+00 0.000e+00 
i_X_DATA\[4\] I *L 0.000e+00 *S 0.000e+00 0.000e+00 
i_X_DATA\[3\] I *L 0.000e+00 *S 0.000e+00 0.000e+00 
i_X_DATA\[2\] I *L 0.000e+00 *S 0.000e+00 0.000e+00 
i_X_DATA\[1\] I *L 0.000e+00 *S 0.000e+00 0.000e+00 
i_X_DATA\[0\] I *L 0.000e+00 *S 0.000e+00 0.000e+00 
i_X_DATA_VALID I *L 0.000e+00 *S 0.000e+00 0.000e+00 
o_X_DATA_READY O *L 1.035e-02 *S 2.489e-01 1.799e-01 
o_Y_DATA\[31\] O *L 1.035e-02 *S 3.530e-01 3.382e-01 
o_Y_DATA\[30\] O *L 1.035e-02 *S 3.530e-01 3.382e-01 
o_Y_DATA\[29\] O *L 1.035e-02 *S 3.530e-01 3.382e-01 
o_Y_DATA\[28\] O *L 1.035e-02 *S 3.530e-01 3.382e-01 
o_Y_DATA\[27\] O *L 1.035e-02 *S 3.530e-01 3.382e-01 
o_Y_DATA\[26\] O *L 1.035e-02 *S 3.530e-01 3.382e-01 
o_Y_DATA\[25\] O *L 1.035e-02 *S 3.530e-01 3.382e-01 
o_Y_DATA\[24\] O *L 1.035e-02 *S 3.530e-01 3.382e-01 
o_Y_DATA\[23\] O *L 1.035e-02 *S 3.530e-01 3.382e-01 
o_Y_DATA\[22\] O *L 1.035e-02 *S 3.530e-01 3.382e-01 
o_Y_DATA\[21\] O *L 1.035e-02 *S 3.530e-01 3.382e-01 
o_Y_DATA\[20\] O *L 1.035e-02 *S 3.530e-01 3.382e-01 
o_Y_DATA\[19\] O *L 1.035e-02 *S 3.530e-01 3.382e-01 
o_Y_DATA\[18\] O *L 1.035e-02 *S 3.530e-01 3.382e-01 
o_Y_DATA\[17\] O *L 1.035e-02 *S 3.530e-01 3.382e-01 
o_Y_DATA\[16\] O *L 1.035e-02 *S 3.530e-01 3.382e-01 
o_Y_DATA\[15\] O *L 1.035e-02 *S 3.530e-01 3.382e-01 
o_Y_DATA\[14\] O *L 1.035e-02 *S 3.530e-01 3.382e-01 
o_Y_DATA\[13\] O *L 1.035e-02 *S 3.530e-01 3.382e-01 
o_Y_DATA\[12\] O *L 1.035e-02 *S 3.530e-01 3.382e-01 
o_Y_DATA\[11\] O *L 1.035e-02 *S 3.530e-01 3.382e-01 
o_Y_DATA\[10\] O *L 1.035e-02 *S 3.530e-01 3.382e-01 
o_Y_DATA\[9\] O *L 1.035e-02 *S 3.530e-01 3.382e-01 
o_Y_DATA\[8\] O *L 1.035e-02 *S 3.530e-01 3.382e-01 
o_Y_DATA\[7\] O *L 1.035e-02 *S 3.530e-01 3.382e-01 
o_Y_DATA\[6\] O *L 1.035e-02 *S 3.530e-01 3.382e-01 
o_Y_DATA\[5\] O *L 1.035e-02 *S 3.530e-01 3.382e-01 
o_Y_DATA\[4\] O *L 1.035e-02 *S 3.530e-01 3.382e-01 
o_Y_DATA\[3\] O *L 1.035e-02 *S 3.530e-01 3.382e-01 
o_Y_DATA\[2\] O *L 1.035e-02 *S 3.530e-01 3.382e-01 
o_Y_DATA\[1\] O *L 1.035e-02 *S 3.530e-01 3.382e-01 
o_Y_DATA\[0\] O *L 1.035e-02 *S 3.530e-01 3.382e-01 
o_Y_DATA_VALID O *L 1.035e-02 *S 2.586e-01 2.636e-01 
i_Y_ACK I *L 0.000e+00 *S 0.000e+00 0.000e+00 
i_CLK I *L 0.000e+00 *S 0.000e+00 0.000e+00 
i_RSTN I *L 0.000e+00 *S 0.000e+00 0.000e+00 

*R_NET i_X_DATA\[31\] 5.290e-03
*DRIVER i_X_DATA\[31\]
*CELL NULL
*C2_R1_C1 2.645e-03 7.940e-03 2.645e-03 
*LOADS
*RC U932:B 4.200e-05
*END

*R_NET i_X_DATA\[30\] 5.290e-03
*DRIVER i_X_DATA\[30\]
*CELL NULL
*C2_R1_C1 2.645e-03 7.940e-03 2.645e-03 
*LOADS
*RC U931:B 4.200e-05
*END

*R_NET i_X_DATA\[29\] 5.290e-03
*DRIVER i_X_DATA\[29\]
*CELL NULL
*C2_R1_C1 2.645e-03 7.940e-03 2.645e-03 
*LOADS
*RC U942:B 4.200e-05
*END

*R_NET i_X_DATA\[28\] 5.290e-03
*DRIVER i_X_DATA\[28\]
*CELL NULL
*C2_R1_C1 2.645e-03 7.940e-03 2.645e-03 
*LOADS
*RC U941:B 4.200e-05
*END

*R_NET i_X_DATA\[27\] 5.290e-03
*DRIVER i_X_DATA\[27\]
*CELL NULL
*C2_R1_C1 2.645e-03 7.940e-03 2.645e-03 
*LOADS
*RC U940:B 4.200e-05
*END

*R_NET i_X_DATA\[26\] 5.290e-03
*DRIVER i_X_DATA\[26\]
*CELL NULL
*C2_R1_C1 2.645e-03 7.940e-03 2.645e-03 
*LOADS
*RC U939:B 4.200e-05
*END

*R_NET i_X_DATA\[25\] 5.290e-03
*DRIVER i_X_DATA\[25\]
*CELL NULL
*C2_R1_C1 2.645e-03 7.940e-03 2.645e-03 
*LOADS
*RC U938:B 4.200e-05
*END

*R_NET i_X_DATA\[24\] 5.290e-03
*DRIVER i_X_DATA\[24\]
*CELL NULL
*C2_R1_C1 2.645e-03 7.940e-03 2.645e-03 
*LOADS
*RC U937:B 4.200e-05
*END

*R_NET i_X_DATA\[23\] 5.290e-03
*DRIVER i_X_DATA\[23\]
*CELL NULL
*C2_R1_C1 2.645e-03 7.940e-03 2.645e-03 
*LOADS
*RC U1028:B 4.200e-05
*END

*R_NET i_X_DATA\[22\] 5.290e-03
*DRIVER i_X_DATA\[22\]
*CELL NULL
*C2_R1_C1 2.645e-03 7.940e-03 2.645e-03 
*LOADS
*RC U1027:B 4.200e-05
*END

*R_NET i_X_DATA\[21\] 5.290e-03
*DRIVER i_X_DATA\[21\]
*CELL NULL
*C2_R1_C1 2.645e-03 7.940e-03 2.645e-03 
*LOADS
*RC U1026:B 4.200e-05
*END

*R_NET i_X_DATA\[20\] 5.290e-03
*DRIVER i_X_DATA\[20\]
*CELL NULL
*C2_R1_C1 2.645e-03 7.940e-03 2.645e-03 
*LOADS
*RC U1025:B 4.200e-05
*END

*R_NET i_X_DATA\[19\] 5.290e-03
*DRIVER i_X_DATA\[19\]
*CELL NULL
*C2_R1_C1 2.645e-03 7.940e-03 2.645e-03 
*LOADS
*RC U984:B 4.200e-05
*END

*R_NET i_X_DATA\[18\] 5.290e-03
*DRIVER i_X_DATA\[18\]
*CELL NULL
*C2_R1_C1 2.645e-03 7.940e-03 2.645e-03 
*LOADS
*RC U983:B 4.200e-05
*END

*R_NET i_X_DATA\[17\] 5.290e-03
*DRIVER i_X_DATA\[17\]
*CELL NULL
*C2_R1_C1 2.645e-03 7.940e-03 2.645e-03 
*LOADS
*RC U982:B 4.200e-05
*END

*R_NET i_X_DATA\[16\] 5.290e-03
*DRIVER i_X_DATA\[16\]
*CELL NULL
*C2_R1_C1 2.645e-03 7.940e-03 2.645e-03 
*LOADS
*RC U981:B 4.200e-05
*END

*R_NET i_X_DATA\[15\] 5.290e-03
*DRIVER i_X_DATA\[15\]
*CELL NULL
*C2_R1_C1 2.645e-03 7.940e-03 2.645e-03 
*LOADS
*RC U980:B 4.200e-05
*END

*R_NET i_X_DATA\[14\] 5.290e-03
*DRIVER i_X_DATA\[14\]
*CELL NULL
*C2_R1_C1 2.645e-03 7.940e-03 2.645e-03 
*LOADS
*RC U979:B 4.200e-05
*END

*R_NET i_X_DATA\[13\] 5.290e-03
*DRIVER i_X_DATA\[13\]
*CELL NULL
*C2_R1_C1 2.645e-03 7.940e-03 2.645e-03 
*LOADS
*RC U978:B 4.200e-05
*END

*R_NET i_X_DATA\[12\] 5.290e-03
*DRIVER i_X_DATA\[12\]
*CELL NULL
*C2_R1_C1 2.645e-03 7.940e-03 2.645e-03 
*LOADS
*RC U977:B 4.200e-05
*END

*R_NET i_X_DATA\[11\] 5.290e-03
*DRIVER i_X_DATA\[11\]
*CELL NULL
*C2_R1_C1 2.645e-03 7.940e-03 2.645e-03 
*LOADS
*RC U976:B 4.200e-05
*END

*R_NET i_X_DATA\[10\] 5.290e-03
*DRIVER i_X_DATA\[10\]
*CELL NULL
*C2_R1_C1 2.645e-03 7.940e-03 2.645e-03 
*LOADS
*RC U975:B 4.200e-05
*END

*R_NET i_X_DATA\[9\] 5.290e-03
*DRIVER i_X_DATA\[9\]
*CELL NULL
*C2_R1_C1 2.645e-03 7.940e-03 2.645e-03 
*LOADS
*RC U974:B 4.200e-05
*END

*R_NET i_X_DATA\[8\] 5.290e-03
*DRIVER i_X_DATA\[8\]
*CELL NULL
*C2_R1_C1 2.645e-03 7.940e-03 2.645e-03 
*LOADS
*RC U973:B 4.200e-05
*END

*R_NET i_X_DATA\[7\] 5.290e-03
*DRIVER i_X_DATA\[7\]
*CELL NULL
*C2_R1_C1 2.645e-03 7.940e-03 2.645e-03 
*LOADS
*RC U972:B 4.200e-05
*END

*R_NET i_X_DATA\[6\] 5.290e-03
*DRIVER i_X_DATA\[6\]
*CELL NULL
*C2_R1_C1 2.645e-03 7.940e-03 2.645e-03 
*LOADS
*RC U971:B 4.200e-05
*END

*R_NET i_X_DATA\[5\] 5.290e-03
*DRIVER i_X_DATA\[5\]
*CELL NULL
*C2_R1_C1 2.645e-03 7.940e-03 2.645e-03 
*LOADS
*RC U970:B 4.200e-05
*END

*R_NET i_X_DATA\[4\] 5.290e-03
*DRIVER i_X_DATA\[4\]
*CELL NULL
*C2_R1_C1 2.645e-03 7.940e-03 2.645e-03 
*LOADS
*RC U969:B 4.200e-05
*END

*R_NET i_X_DATA\[3\] 5.290e-03
*DRIVER i_X_DATA\[3\]
*CELL NULL
*C2_R1_C1 2.645e-03 7.940e-03 2.645e-03 
*LOADS
*RC U968:B 4.200e-05
*END

*R_NET i_X_DATA\[2\] 5.290e-03
*DRIVER i_X_DATA\[2\]
*CELL NULL
*C2_R1_C1 2.645e-03 7.940e-03 2.645e-03 
*LOADS
*RC U967:B 4.200e-05
*END

*R_NET i_X_DATA\[1\] 5.290e-03
*DRIVER i_X_DATA\[1\]
*CELL NULL
*C2_R1_C1 2.645e-03 7.940e-03 2.645e-03 
*LOADS
*RC U1024:B 4.200e-05
*END

*R_NET i_X_DATA\[0\] 5.290e-03
*DRIVER i_X_DATA\[0\]
*CELL NULL
*C2_R1_C1 2.645e-03 7.940e-03 2.645e-03 
*LOADS
*RC U1023:B 4.200e-05
*END

*R_NET i_X_DATA_VALID 5.100e-03
*DRIVER i_X_DATA_VALID
*CELL NULL
*C2_R1_C1 2.550e-03 7.940e-03 2.550e-03 
*LOADS
*RC U1630:A 4.049e-05
*END

*R_NET o_X_DATA_READY 2.784e-02
*DRIVER o_X_DATA_READY_reg:Q
*CELL fd3qd1_hd
*C2_R1_C1 1.392e-02 1.366e-02 1.392e-02 
*LOADS
*RC U1221:D0 3.803e-04
*RC U1630:B 3.803e-04
*RC o_X_DATA_READY 3.803e-04
*END

*R_NET o_Y_DATA\[31\] 4.004e-02
*DRIVER o_Y_DATA_reg_31_:Q
*CELL fd4qd1_hd
*C2_R1_C1 2.002e-02 1.824e-02 2.002e-02 
*LOADS
*RC U1050:B 7.303e-04
*RC U1214:D0 7.303e-04
*RC U459:D 7.303e-04
*RC o_Y_DATA\[31\] 7.303e-04
*END

*R_NET o_Y_DATA\[30\] 4.004e-02
*DRIVER o_Y_DATA_reg_30_:Q
*CELL fd4qd1_hd
*C2_R1_C1 2.002e-02 1.824e-02 2.002e-02 
*LOADS
*RC U1049:B 7.303e-04
*RC U1213:D0 7.303e-04
*RC U463:D 7.303e-04
*RC o_Y_DATA\[30\] 7.303e-04
*END

*R_NET o_Y_DATA\[29\] 4.004e-02
*DRIVER o_Y_DATA_reg_29_:Q
*CELL fd4qd1_hd
*C2_R1_C1 2.002e-02 1.824e-02 2.002e-02 
*LOADS
*RC U1048:B 7.303e-04
*RC U1212:D0 7.303e-04
*RC U467:D 7.303e-04
*RC o_Y_DATA\[29\] 7.303e-04
*END

*R_NET o_Y_DATA\[28\] 4.004e-02
*DRIVER o_Y_DATA_reg_28_:Q
*CELL fd4qd1_hd
*C2_R1_C1 2.002e-02 1.824e-02 2.002e-02 
*LOADS
*RC U1047:B 7.303e-04
*RC U1211:D0 7.303e-04
*RC U471:D 7.303e-04
*RC o_Y_DATA\[28\] 7.303e-04
*END

*R_NET o_Y_DATA\[27\] 4.004e-02
*DRIVER o_Y_DATA_reg_27_:Q
*CELL fd4qd1_hd
*C2_R1_C1 2.002e-02 1.824e-02 2.002e-02 
*LOADS
*RC U1046:B 7.303e-04
*RC U1210:D0 7.303e-04
*RC U475:D 7.303e-04
*RC o_Y_DATA\[27\] 7.303e-04
*END

*R_NET o_Y_DATA\[26\] 4.004e-02
*DRIVER o_Y_DATA_reg_26_:Q
*CELL fd4qd1_hd
*C2_R1_C1 2.002e-02 1.824e-02 2.002e-02 
*LOADS
*RC U1045:B 7.303e-04
*RC U1209:D0 7.303e-04
*RC U479:D 7.303e-04
*RC o_Y_DATA\[26\] 7.303e-04
*END

*R_NET o_Y_DATA\[25\] 4.004e-02
*DRIVER o_Y_DATA_reg_25_:Q
*CELL fd4qd1_hd
*C2_R1_C1 2.002e-02 1.824e-02 2.002e-02 
*LOADS
*RC U1044:B 7.303e-04
*RC U1208:D0 7.303e-04
*RC U483:D 7.303e-04
*RC o_Y_DATA\[25\] 7.303e-04
*END

*R_NET o_Y_DATA\[24\] 4.004e-02
*DRIVER o_Y_DATA_reg_24_:Q
*CELL fd4qd1_hd
*C2_R1_C1 2.002e-02 1.824e-02 2.002e-02 
*LOADS
*RC U1043:B 7.303e-04
*RC U1207:D0 7.303e-04
*RC U487:D 7.303e-04
*RC o_Y_DATA\[24\] 7.303e-04
*END

*R_NET o_Y_DATA\[23\] 4.004e-02
*DRIVER o_Y_DATA_reg_23_:Q
*CELL fd4qd1_hd
*C2_R1_C1 2.002e-02 1.824e-02 2.002e-02 
*LOADS
*RC U1042:B 7.303e-04
*RC U1206:D0 7.303e-04
*RC U491:D 7.303e-04
*RC o_Y_DATA\[23\] 7.303e-04
*END

*R_NET o_Y_DATA\[22\] 4.004e-02
*DRIVER o_Y_DATA_reg_22_:Q
*CELL fd4qd1_hd
*C2_R1_C1 2.002e-02 1.824e-02 2.002e-02 
*LOADS
*RC U1041:B 7.303e-04
*RC U1205:D0 7.303e-04
*RC U495:D 7.303e-04
*RC o_Y_DATA\[22\] 7.303e-04
*END

*R_NET o_Y_DATA\[21\] 4.004e-02
*DRIVER o_Y_DATA_reg_21_:Q
*CELL fd4qd1_hd
*C2_R1_C1 2.002e-02 1.824e-02 2.002e-02 
*LOADS
*RC U1040:B 7.303e-04
*RC U1204:D0 7.303e-04
*RC U499:D 7.303e-04
*RC o_Y_DATA\[21\] 7.303e-04
*END

*R_NET o_Y_DATA\[20\] 4.004e-02
*DRIVER o_Y_DATA_reg_20_:Q
*CELL fd4qd1_hd
*C2_R1_C1 2.002e-02 1.824e-02 2.002e-02 
*LOADS
*RC U960:B 7.303e-04
*RC U1203:D0 7.303e-04
*RC U503:D 7.303e-04
*RC o_Y_DATA\[20\] 7.303e-04
*END

*R_NET o_Y_DATA\[19\] 4.004e-02
*DRIVER o_Y_DATA_reg_19_:Q
*CELL fd4qd1_hd
*C2_R1_C1 2.002e-02 1.824e-02 2.002e-02 
*LOADS
*RC U959:B 7.303e-04
*RC U1202:D0 7.303e-04
*RC U507:D 7.303e-04
*RC o_Y_DATA\[19\] 7.303e-04
*END

*R_NET o_Y_DATA\[18\] 4.004e-02
*DRIVER o_Y_DATA_reg_18_:Q
*CELL fd4qd1_hd
*C2_R1_C1 2.002e-02 1.824e-02 2.002e-02 
*LOADS
*RC U958:B 7.303e-04
*RC U1201:D0 7.303e-04
*RC U511:D 7.303e-04
*RC o_Y_DATA\[18\] 7.303e-04
*END

*R_NET o_Y_DATA\[17\] 4.004e-02
*DRIVER o_Y_DATA_reg_17_:Q
*CELL fd4qd1_hd
*C2_R1_C1 2.002e-02 1.824e-02 2.002e-02 
*LOADS
*RC U957:B 7.303e-04
*RC U1200:D0 7.303e-04
*RC U515:D 7.303e-04
*RC o_Y_DATA\[17\] 7.303e-04
*END

*R_NET o_Y_DATA\[16\] 4.004e-02
*DRIVER o_Y_DATA_reg_16_:Q
*CELL fd4qd1_hd
*C2_R1_C1 2.002e-02 1.824e-02 2.002e-02 
*LOADS
*RC U956:B 7.303e-04
*RC U1199:D0 7.303e-04
*RC U519:D 7.303e-04
*RC o_Y_DATA\[16\] 7.303e-04
*END

*R_NET o_Y_DATA\[15\] 4.004e-02
*DRIVER o_Y_DATA_reg_15_:Q
*CELL fd4qd1_hd
*C2_R1_C1 2.002e-02 1.824e-02 2.002e-02 
*LOADS
*RC U955:B 7.303e-04
*RC U1198:D0 7.303e-04
*RC U523:D 7.303e-04
*RC o_Y_DATA\[15\] 7.303e-04
*END

*R_NET o_Y_DATA\[14\] 4.004e-02
*DRIVER o_Y_DATA_reg_14_:Q
*CELL fd4qd1_hd
*C2_R1_C1 2.002e-02 1.824e-02 2.002e-02 
*LOADS
*RC U954:B 7.303e-04
*RC U1197:D0 7.303e-04
*RC U527:D 7.303e-04
*RC o_Y_DATA\[14\] 7.303e-04
*END

*R_NET o_Y_DATA\[13\] 4.004e-02
*DRIVER o_Y_DATA_reg_13_:Q
*CELL fd4qd1_hd
*C2_R1_C1 2.002e-02 1.824e-02 2.002e-02 
*LOADS
*RC U909:B 7.303e-04
*RC U1196:D0 7.303e-04
*RC U531:D 7.303e-04
*RC o_Y_DATA\[13\] 7.303e-04
*END

*R_NET o_Y_DATA\[12\] 4.004e-02
*DRIVER o_Y_DATA_reg_12_:Q
*CELL fd4qd1_hd
*C2_R1_C1 2.002e-02 1.824e-02 2.002e-02 
*LOADS
*RC U908:B 7.303e-04
*RC U1195:D0 7.303e-04
*RC U535:D 7.303e-04
*RC o_Y_DATA\[12\] 7.303e-04
*END

*R_NET o_Y_DATA\[11\] 4.004e-02
*DRIVER o_Y_DATA_reg_11_:Q
*CELL fd4qd1_hd
*C2_R1_C1 2.002e-02 1.824e-02 2.002e-02 
*LOADS
*RC U907:B 7.303e-04
*RC U1194:D0 7.303e-04
*RC U539:D 7.303e-04
*RC o_Y_DATA\[11\] 7.303e-04
*END

*R_NET o_Y_DATA\[10\] 4.004e-02
*DRIVER o_Y_DATA_reg_10_:Q
*CELL fd4qd1_hd
*C2_R1_C1 2.002e-02 1.824e-02 2.002e-02 
*LOADS
*RC U906:B 7.303e-04
*RC U1193:D0 7.303e-04
*RC U543:D 7.303e-04
*RC o_Y_DATA\[10\] 7.303e-04
*END

*R_NET o_Y_DATA\[9\] 4.004e-02
*DRIVER o_Y_DATA_reg_9_:Q
*CELL fd4qd1_hd
*C2_R1_C1 2.002e-02 1.824e-02 2.002e-02 
*LOADS
*RC U905:B 7.303e-04
*RC U1192:D0 7.303e-04
*RC U547:D 7.303e-04
*RC o_Y_DATA\[9\] 7.303e-04
*END

*R_NET o_Y_DATA\[8\] 4.004e-02
*DRIVER o_Y_DATA_reg_8_:Q
*CELL fd4qd1_hd
*C2_R1_C1 2.002e-02 1.824e-02 2.002e-02 
*LOADS
*RC U904:B 7.303e-04
*RC U1191:D0 7.303e-04
*RC U551:D 7.303e-04
*RC o_Y_DATA\[8\] 7.303e-04
*END

*R_NET o_Y_DATA\[7\] 4.004e-02
*DRIVER o_Y_DATA_reg_7_:Q
*CELL fd4qd1_hd
*C2_R1_C1 2.002e-02 1.824e-02 2.002e-02 
*LOADS
*RC U903:B 7.303e-04
*RC U1190:D0 7.303e-04
*RC U555:D 7.303e-04
*RC o_Y_DATA\[7\] 7.303e-04
*END

*R_NET o_Y_DATA\[6\] 4.004e-02
*DRIVER o_Y_DATA_reg_6_:Q
*CELL fd4qd1_hd
*C2_R1_C1 2.002e-02 1.824e-02 2.002e-02 
*LOADS
*RC U927:B 7.303e-04
*RC U1189:D0 7.303e-04
*RC U559:D 7.303e-04
*RC o_Y_DATA\[6\] 7.303e-04
*END

*R_NET o_Y_DATA\[5\] 4.004e-02
*DRIVER o_Y_DATA_reg_5_:Q
*CELL fd4qd1_hd
*C2_R1_C1 2.002e-02 1.824e-02 2.002e-02 
*LOADS
*RC U921:B 7.303e-04
*RC U1188:D0 7.303e-04
*RC U563:D 7.303e-04
*RC o_Y_DATA\[5\] 7.303e-04
*END

*R_NET o_Y_DATA\[4\] 4.004e-02
*DRIVER o_Y_DATA_reg_4_:Q
*CELL fd4qd1_hd
*C2_R1_C1 2.002e-02 1.824e-02 2.002e-02 
*LOADS
*RC U926:B 7.303e-04
*RC U1187:D0 7.303e-04
*RC U567:D 7.303e-04
*RC o_Y_DATA\[4\] 7.303e-04
*END

*R_NET o_Y_DATA\[3\] 4.004e-02
*DRIVER o_Y_DATA_reg_3_:Q
*CELL fd4qd1_hd
*C2_R1_C1 2.002e-02 1.824e-02 2.002e-02 
*LOADS
*RC U902:B 7.303e-04
*RC U1186:D0 7.303e-04
*RC U571:D 7.303e-04
*RC o_Y_DATA\[3\] 7.303e-04
*END

*R_NET o_Y_DATA\[2\] 4.004e-02
*DRIVER o_Y_DATA_reg_2_:Q
*CELL fd4qd1_hd
*C2_R1_C1 2.002e-02 1.824e-02 2.002e-02 
*LOADS
*RC U920:B 7.303e-04
*RC U1185:D0 7.303e-04
*RC U575:D 7.303e-04
*RC o_Y_DATA\[2\] 7.303e-04
*END

*R_NET o_Y_DATA\[1\] 4.004e-02
*DRIVER o_Y_DATA_reg_1_:Q
*CELL fd4qd1_hd
*C2_R1_C1 2.002e-02 1.824e-02 2.002e-02 
*LOADS
*RC U925:B 7.303e-04
*RC U1184:D0 7.303e-04
*RC U579:D 7.303e-04
*RC o_Y_DATA\[1\] 7.303e-04
*END

*R_NET o_Y_DATA\[0\] 4.004e-02
*DRIVER o_Y_DATA_reg_0_:Q
*CELL fd4qd1_hd
*C2_R1_C1 2.002e-02 1.824e-02 2.002e-02 
*LOADS
*RC U919:B 7.303e-04
*RC U1183:D0 7.303e-04
*RC U587:D 7.303e-04
*RC o_Y_DATA\[0\] 7.303e-04
*END

*R_NET o_Y_DATA_VALID 2.830e-02
*DRIVER o_Y_DATA_VALID_reg:Q
*CELL fd4qd1_hd
*C2_R1_C1 1.415e-02 1.366e-02 1.415e-02 
*LOADS
*RC U1181:D0 3.866e-04
*RC U1648:A 3.866e-04
*RC o_Y_DATA_VALID 3.866e-04
*END

*R_NET i_Y_ACK 5.700e-03
*DRIVER i_Y_ACK
*CELL NULL
*C2_R1_C1 2.850e-03 7.940e-03 2.850e-03 
*LOADS
*RC U1648:B 4.526e-05
*END

*R_NET w_rstn 8.127e-02
*DRIVER async_rstn_synchronizer/o_RSTN_reg:Q
*CELL fd2qd1_hd
*C2_R1_C1 4.064e-02 2.690e-02 4.064e-02 
*LOADS
*RC U1640:A 2.186e-03
*RC r_mult_1_B_reg_28_:RN 2.186e-03
*RC r_mult_2_B_reg_25_:RN 2.186e-03
*RC r_mult_2_B_reg_26_:RN 2.186e-03
*RC r_mult_2_B_reg_27_:RN 2.186e-03
*RC r_mult_2_B_reg_28_:RN 2.186e-03
*RC r_mult_2_B_reg_29_:RN 2.186e-03
*RC o_Y_DATA_reg_24_:RN 2.186e-03
*RC o_Y_DATA_reg_25_:RN 2.186e-03
*RC o_Y_DATA_reg_26_:RN 2.186e-03
*RC o_Y_DATA_reg_27_:RN 2.186e-03
*RC o_Y_DATA_reg_28_:RN 2.186e-03
*RC r_x_data_reg_65_:RN 2.186e-03
*RC U1660:A 2.186e-03
*RC U1661:A 2.186e-03
*END

*R_NET w_rst 7.874e-02
*DRIVER async_rst_synchronizer/o_RST_reg:Q
*CELL fd3qd1_hd
*C2_R1_C1 3.937e-02 2.601e-02 3.937e-02 
*LOADS
*RC mult_2/U18:A 2.048e-03
*RC mult_2/U17:A 2.048e-03
*RC mult_2/U16:A 2.048e-03
*RC mult_2/U15:A 2.048e-03
*RC mult_2/U14:A 2.048e-03
*RC mult_2/U11:A 2.048e-03
*RC mult_1/U18:A 2.048e-03
*RC mult_1/U17:A 2.048e-03
*RC mult_1/U16:A 2.048e-03
*RC mult_1/U15:A 2.048e-03
*RC mult_1/U14:A 2.048e-03
*RC mult_1/U11:A 2.048e-03
*RC U1228:A 2.048e-03
*END

*R_NET r_add_A\[31\] 1.993e-02
*DRIVER r_add_A_reg_31_:Q
*CELL fd4qd1_hd
*C2_R1_C1 9.965e-03 1.366e-02 9.965e-03 
*LOADS
*RC U869:D0 2.722e-04
*RC U458:C 2.722e-04
*RC add/a_reg_31_:D 2.722e-04
*END

*R_NET r_add_A\[30\] 1.993e-02
*DRIVER r_add_A_reg_30_:Q
*CELL fd4qd1_hd
*C2_R1_C1 9.965e-03 1.366e-02 9.965e-03 
*LOADS
*RC U868:D0 2.722e-04
*RC U462:C 2.722e-04
*RC add/a_reg_30_:D 2.722e-04
*END

*R_NET r_add_A\[29\] 1.998e-02
*DRIVER r_add_A_reg_29_:Q
*CELL fd4qd1_hd
*C2_R1_C1 9.990e-03 1.366e-02 9.990e-03 
*LOADS
*RC U867:D0 2.729e-04
*RC U466:C 2.729e-04
*RC add/a_reg_29_:D 2.729e-04
*END

*R_NET r_add_A\[28\] 1.998e-02
*DRIVER r_add_A_reg_28_:Q
*CELL fd4qd1_hd
*C2_R1_C1 9.990e-03 1.366e-02 9.990e-03 
*LOADS
*RC U866:D0 2.729e-04
*RC U470:C 2.729e-04
*RC add/a_reg_28_:D 2.729e-04
*END

*R_NET r_add_A\[27\] 1.993e-02
*DRIVER r_add_A_reg_27_:Q
*CELL fd4qd1_hd
*C2_R1_C1 9.965e-03 1.366e-02 9.965e-03 
*LOADS
*RC U865:D0 2.722e-04
*RC U474:C 2.722e-04
*RC add/a_reg_27_:D 2.722e-04
*END

*R_NET r_add_A\[26\] 1.993e-02
*DRIVER r_add_A_reg_26_:Q
*CELL fd4qd1_hd
*C2_R1_C1 9.965e-03 1.366e-02 9.965e-03 
*LOADS
*RC U864:D0 2.722e-04
*RC U478:C 2.722e-04
*RC add/a_reg_26_:D 2.722e-04
*END

*R_NET r_add_A\[25\] 1.998e-02
*DRIVER r_add_A_reg_25_:Q
*CELL fd4qd1_hd
*C2_R1_C1 9.990e-03 1.366e-02 9.990e-03 
*LOADS
*RC U863:D0 2.729e-04
*RC U482:C 2.729e-04
*RC add/a_reg_25_:D 2.729e-04
*END

*R_NET r_add_A\[24\] 1.998e-02
*DRIVER r_add_A_reg_24_:Q
*CELL fd4qd1_hd
*C2_R1_C1 9.990e-03 1.366e-02 9.990e-03 
*LOADS
*RC U862:D0 2.729e-04
*RC U486:C 2.729e-04
*RC add/a_reg_24_:D 2.729e-04
*END

*R_NET r_add_A\[23\] 1.993e-02
*DRIVER r_add_A_reg_23_:Q
*CELL fd4qd1_hd
*C2_R1_C1 9.965e-03 1.366e-02 9.965e-03 
*LOADS
*RC U861:D0 2.722e-04
*RC U490:C 2.722e-04
*RC add/a_reg_23_:D 2.722e-04
*END

*R_NET r_add_A\[22\] 1.993e-02
*DRIVER r_add_A_reg_22_:Q
*CELL fd4qd1_hd
*C2_R1_C1 9.965e-03 1.366e-02 9.965e-03 
*LOADS
*RC U860:D0 2.722e-04
*RC U494:C 2.722e-04
*RC add/a_reg_22_:D 2.722e-04
*END

*R_NET r_add_A\[21\] 1.998e-02
*DRIVER r_add_A_reg_21_:Q
*CELL fd4qd1_hd
*C2_R1_C1 9.990e-03 1.366e-02 9.990e-03 
*LOADS
*RC U859:D0 2.729e-04
*RC U498:C 2.729e-04
*RC add/a_reg_21_:D 2.729e-04
*END

*R_NET r_add_A\[20\] 1.998e-02
*DRIVER r_add_A_reg_20_:Q
*CELL fd4qd1_hd
*C2_R1_C1 9.990e-03 1.366e-02 9.990e-03 
*LOADS
*RC U858:D0 2.729e-04
*RC U502:C 2.729e-04
*RC add/a_reg_20_:D 2.729e-04
*END

*R_NET r_add_A\[19\] 1.993e-02
*DRIVER r_add_A_reg_19_:Q
*CELL fd4qd1_hd
*C2_R1_C1 9.965e-03 1.366e-02 9.965e-03 
*LOADS
*RC U857:D0 2.722e-04
*RC U506:C 2.722e-04
*RC add/a_reg_19_:D 2.722e-04
*END

*R_NET r_add_A\[18\] 1.993e-02
*DRIVER r_add_A_reg_18_:Q
*CELL fd4qd1_hd
*C2_R1_C1 9.965e-03 1.366e-02 9.965e-03 
*LOADS
*RC U856:D0 2.722e-04
*RC U510:C 2.722e-04
*RC add/a_reg_18_:D 2.722e-04
*END

*R_NET r_add_A\[17\] 1.998e-02
*DRIVER r_add_A_reg_17_:Q
*CELL fd4qd1_hd
*C2_R1_C1 9.990e-03 1.366e-02 9.990e-03 
*LOADS
*RC U855:D0 2.729e-04
*RC U514:C 2.729e-04
*RC add/a_reg_17_:D 2.729e-04
*END

*R_NET r_add_A\[16\] 1.998e-02
*DRIVER r_add_A_reg_16_:Q
*CELL fd4qd1_hd
*C2_R1_C1 9.990e-03 1.366e-02 9.990e-03 
*LOADS
*RC U854:D0 2.729e-04
*RC U518:C 2.729e-04
*RC add/a_reg_16_:D 2.729e-04
*END

*R_NET r_add_A\[15\] 1.993e-02
*DRIVER r_add_A_reg_15_:Q
*CELL fd4qd1_hd
*C2_R1_C1 9.965e-03 1.366e-02 9.965e-03 
*LOADS
*RC U853:D0 2.722e-04
*RC U522:C 2.722e-04
*RC add/a_reg_15_:D 2.722e-04
*END

*R_NET r_add_A\[14\] 1.993e-02
*DRIVER r_add_A_reg_14_:Q
*CELL fd4qd1_hd
*C2_R1_C1 9.965e-03 1.366e-02 9.965e-03 
*LOADS
*RC U852:D0 2.722e-04
*RC U526:C 2.722e-04
*RC add/a_reg_14_:D 2.722e-04
*END

*R_NET r_add_A\[13\] 1.998e-02
*DRIVER r_add_A_reg_13_:Q
*CELL fd4qd1_hd
*C2_R1_C1 9.990e-03 1.366e-02 9.990e-03 
*LOADS
*RC U851:D0 2.729e-04
*RC U530:C 2.729e-04
*RC add/a_reg_13_:D 2.729e-04
*END

*R_NET r_add_A\[12\] 1.998e-02
*DRIVER r_add_A_reg_12_:Q
*CELL fd4qd1_hd
*C2_R1_C1 9.990e-03 1.366e-02 9.990e-03 
*LOADS
*RC U850:D0 2.729e-04
*RC U534:C 2.729e-04
*RC add/a_reg_12_:D 2.729e-04
*END

*R_NET r_add_A\[11\] 1.993e-02
*DRIVER r_add_A_reg_11_:Q
*CELL fd4qd1_hd
*C2_R1_C1 9.965e-03 1.366e-02 9.965e-03 
*LOADS
*RC U849:D0 2.722e-04
*RC U538:C 2.722e-04
*RC add/a_reg_11_:D 2.722e-04
*END

*R_NET r_add_A\[10\] 1.993e-02
*DRIVER r_add_A_reg_10_:Q
*CELL fd4qd1_hd
*C2_R1_C1 9.965e-03 1.366e-02 9.965e-03 
*LOADS
*RC U848:D0 2.722e-04
*RC U542:C 2.722e-04
*RC add/a_reg_10_:D 2.722e-04
*END

*R_NET r_add_A\[9\] 1.998e-02
*DRIVER r_add_A_reg_9_:Q
*CELL fd4qd1_hd
*C2_R1_C1 9.990e-03 1.366e-02 9.990e-03 
*LOADS
*RC U847:D0 2.729e-04
*RC U546:C 2.729e-04
*RC add/a_reg_9_:D 2.729e-04
*END

*R_NET r_add_A\[8\] 1.998e-02
*DRIVER r_add_A_reg_8_:Q
*CELL fd4qd1_hd
*C2_R1_C1 9.990e-03 1.366e-02 9.990e-03 
*LOADS
*RC U846:D0 2.729e-04
*RC U550:C 2.729e-04
*RC add/a_reg_8_:D 2.729e-04
*END

*R_NET r_add_A\[7\] 1.993e-02
*DRIVER r_add_A_reg_7_:Q
*CELL fd4qd1_hd
*C2_R1_C1 9.965e-03 1.366e-02 9.965e-03 
*LOADS
*RC U845:D0 2.722e-04
*RC U554:C 2.722e-04
*RC add/a_reg_7_:D 2.722e-04
*END

*R_NET r_add_A\[6\] 1.993e-02
*DRIVER r_add_A_reg_6_:Q
*CELL fd4qd1_hd
*C2_R1_C1 9.965e-03 1.366e-02 9.965e-03 
*LOADS
*RC U844:D0 2.722e-04
*RC U558:C 2.722e-04
*RC add/a_reg_6_:D 2.722e-04
*END

*R_NET r_add_A\[5\] 1.998e-02
*DRIVER r_add_A_reg_5_:Q
*CELL fd4qd1_hd
*C2_R1_C1 9.990e-03 1.366e-02 9.990e-03 
*LOADS
*RC U843:D0 2.729e-04
*RC U562:C 2.729e-04
*RC add/a_reg_5_:D 2.729e-04
*END

*R_NET r_add_A\[4\] 1.998e-02
*DRIVER r_add_A_reg_4_:Q
*CELL fd4qd1_hd
*C2_R1_C1 9.990e-03 1.366e-02 9.990e-03 
*LOADS
*RC U842:D0 2.729e-04
*RC U566:C 2.729e-04
*RC add/a_reg_4_:D 2.729e-04
*END

*R_NET r_add_A\[3\] 1.993e-02
*DRIVER r_add_A_reg_3_:Q
*CELL fd4qd1_hd
*C2_R1_C1 9.965e-03 1.366e-02 9.965e-03 
*LOADS
*RC U841:D0 2.722e-04
*RC U570:C 2.722e-04
*RC add/a_reg_3_:D 2.722e-04
*END

*R_NET r_add_A\[2\] 1.993e-02
*DRIVER r_add_A_reg_2_:Q
*CELL fd4qd1_hd
*C2_R1_C1 9.965e-03 1.366e-02 9.965e-03 
*LOADS
*RC U840:D0 2.722e-04
*RC U574:C 2.722e-04
*RC add/a_reg_2_:D 2.722e-04
*END

*R_NET r_add_A\[1\] 1.998e-02
*DRIVER r_add_A_reg_1_:Q
*CELL fd4qd1_hd
*C2_R1_C1 9.990e-03 1.366e-02 9.990e-03 
*LOADS
*RC U839:D0 2.729e-04
*RC U578:C 2.729e-04
*RC add/a_reg_1_:D 2.729e-04
*END

*R_NET r_add_A\[0\] 1.998e-02
*DRIVER r_add_A_reg_0_:Q
*CELL fd4qd1_hd
*C2_R1_C1 9.990e-03 1.366e-02 9.990e-03 
*LOADS
*RC U838:D0 2.729e-04
*RC U582:C 2.729e-04
*RC add/a_reg_0_:D 2.729e-04
*END

*R_NET r_add_B\[31\] 1.883e-02
*DRIVER r_add_B_reg_31_:Q
*CELL fd4qd1_hd
*C2_R1_C1 9.415e-03 1.366e-02 9.415e-03 
*LOADS
*RC U901:D0 2.572e-04
*RC U423:B 2.572e-04
*RC add/b_reg_31_:D 2.572e-04
*END

*R_NET r_add_B\[30\] 1.883e-02
*DRIVER r_add_B_reg_30_:Q
*CELL fd4qd1_hd
*C2_R1_C1 9.415e-03 1.366e-02 9.415e-03 
*LOADS
*RC U900:D0 2.572e-04
*RC U424:B 2.572e-04
*RC add/b_reg_30_:D 2.572e-04
*END

*R_NET r_add_B\[29\] 1.888e-02
*DRIVER r_add_B_reg_29_:Q
*CELL fd4qd1_hd
*C2_R1_C1 9.440e-03 1.366e-02 9.440e-03 
*LOADS
*RC U899:D0 2.579e-04
*RC U425:B 2.579e-04
*RC add/b_reg_29_:D 2.579e-04
*END

*R_NET r_add_B\[28\] 1.888e-02
*DRIVER r_add_B_reg_28_:Q
*CELL fd4qd1_hd
*C2_R1_C1 9.440e-03 1.366e-02 9.440e-03 
*LOADS
*RC U898:D0 2.579e-04
*RC U426:B 2.579e-04
*RC add/b_reg_28_:D 2.579e-04
*END

*R_NET r_add_B\[27\] 1.883e-02
*DRIVER r_add_B_reg_27_:Q
*CELL fd4qd1_hd
*C2_R1_C1 9.415e-03 1.366e-02 9.415e-03 
*LOADS
*RC U897:D0 2.572e-04
*RC U427:B 2.572e-04
*RC add/b_reg_27_:D 2.572e-04
*END

*R_NET r_add_B\[26\] 1.883e-02
*DRIVER r_add_B_reg_26_:Q
*CELL fd4qd1_hd
*C2_R1_C1 9.415e-03 1.366e-02 9.415e-03 
*LOADS
*RC U896:D0 2.572e-04
*RC U428:B 2.572e-04
*RC add/b_reg_26_:D 2.572e-04
*END

*R_NET r_add_B\[25\] 1.888e-02
*DRIVER r_add_B_reg_25_:Q
*CELL fd4qd1_hd
*C2_R1_C1 9.440e-03 1.366e-02 9.440e-03 
*LOADS
*RC U895:D0 2.579e-04
*RC U429:B 2.579e-04
*RC add/b_reg_25_:D 2.579e-04
*END

*R_NET r_add_B\[24\] 1.888e-02
*DRIVER r_add_B_reg_24_:Q
*CELL fd4qd1_hd
*C2_R1_C1 9.440e-03 1.366e-02 9.440e-03 
*LOADS
*RC U894:D0 2.579e-04
*RC U430:B 2.579e-04
*RC add/b_reg_24_:D 2.579e-04
*END

*R_NET r_add_B\[23\] 1.883e-02
*DRIVER r_add_B_reg_23_:Q
*CELL fd4qd1_hd
*C2_R1_C1 9.415e-03 1.366e-02 9.415e-03 
*LOADS
*RC U893:D0 2.572e-04
*RC U431:B 2.572e-04
*RC add/b_reg_23_:D 2.572e-04
*END

*R_NET r_add_B\[22\] 1.883e-02
*DRIVER r_add_B_reg_22_:Q
*CELL fd4qd1_hd
*C2_R1_C1 9.415e-03 1.366e-02 9.415e-03 
*LOADS
*RC U892:D0 2.572e-04
*RC U432:B 2.572e-04
*RC add/b_reg_22_:D 2.572e-04
*END

*R_NET r_add_B\[21\] 1.888e-02
*DRIVER r_add_B_reg_21_:Q
*CELL fd4qd1_hd
*C2_R1_C1 9.440e-03 1.366e-02 9.440e-03 
*LOADS
*RC U891:D0 2.579e-04
*RC U433:B 2.579e-04
*RC add/b_reg_21_:D 2.579e-04
*END

*R_NET r_add_B\[20\] 1.888e-02
*DRIVER r_add_B_reg_20_:Q
*CELL fd4qd1_hd
*C2_R1_C1 9.440e-03 1.366e-02 9.440e-03 
*LOADS
*RC U890:D0 2.579e-04
*RC U434:B 2.579e-04
*RC add/b_reg_20_:D 2.579e-04
*END

*R_NET r_add_B\[19\] 1.883e-02
*DRIVER r_add_B_reg_19_:Q
*CELL fd4qd1_hd
*C2_R1_C1 9.415e-03 1.366e-02 9.415e-03 
*LOADS
*RC U889:D0 2.572e-04
*RC U435:B 2.572e-04
*RC add/b_reg_19_:D 2.572e-04
*END

*R_NET r_add_B\[18\] 1.883e-02
*DRIVER r_add_B_reg_18_:Q
*CELL fd4qd1_hd
*C2_R1_C1 9.415e-03 1.366e-02 9.415e-03 
*LOADS
*RC U888:D0 2.572e-04
*RC U436:B 2.572e-04
*RC add/b_reg_18_:D 2.572e-04
*END

*R_NET r_add_B\[17\] 1.888e-02
*DRIVER r_add_B_reg_17_:Q
*CELL fd4qd1_hd
*C2_R1_C1 9.440e-03 1.366e-02 9.440e-03 
*LOADS
*RC U887:D0 2.579e-04
*RC U437:B 2.579e-04
*RC add/b_reg_17_:D 2.579e-04
*END

*R_NET r_add_B\[16\] 1.888e-02
*DRIVER r_add_B_reg_16_:Q
*CELL fd4qd1_hd
*C2_R1_C1 9.440e-03 1.366e-02 9.440e-03 
*LOADS
*RC U886:D0 2.579e-04
*RC U438:B 2.579e-04
*RC add/b_reg_16_:D 2.579e-04
*END

*R_NET r_add_B\[15\] 1.883e-02
*DRIVER r_add_B_reg_15_:Q
*CELL fd4qd1_hd
*C2_R1_C1 9.415e-03 1.366e-02 9.415e-03 
*LOADS
*RC U885:D0 2.572e-04
*RC U439:B 2.572e-04
*RC add/b_reg_15_:D 2.572e-04
*END

*R_NET r_add_B\[14\] 1.883e-02
*DRIVER r_add_B_reg_14_:Q
*CELL fd4qd1_hd
*C2_R1_C1 9.415e-03 1.366e-02 9.415e-03 
*LOADS
*RC U884:D0 2.572e-04
*RC U440:B 2.572e-04
*RC add/b_reg_14_:D 2.572e-04
*END

*R_NET r_add_B\[13\] 1.888e-02
*DRIVER r_add_B_reg_13_:Q
*CELL fd4qd1_hd
*C2_R1_C1 9.440e-03 1.366e-02 9.440e-03 
*LOADS
*RC U883:D0 2.579e-04
*RC U441:B 2.579e-04
*RC add/b_reg_13_:D 2.579e-04
*END

*R_NET r_add_B\[12\] 1.888e-02
*DRIVER r_add_B_reg_12_:Q
*CELL fd4qd1_hd
*C2_R1_C1 9.440e-03 1.366e-02 9.440e-03 
*LOADS
*RC U882:D0 2.579e-04
*RC U442:B 2.579e-04
*RC add/b_reg_12_:D 2.579e-04
*END

*R_NET r_add_B\[11\] 1.883e-02
*DRIVER r_add_B_reg_11_:Q
*CELL fd4qd1_hd
*C2_R1_C1 9.415e-03 1.366e-02 9.415e-03 
*LOADS
*RC U881:D0 2.572e-04
*RC U443:B 2.572e-04
*RC add/b_reg_11_:D 2.572e-04
*END

*R_NET r_add_B\[10\] 1.883e-02
*DRIVER r_add_B_reg_10_:Q
*CELL fd4qd1_hd
*C2_R1_C1 9.415e-03 1.366e-02 9.415e-03 
*LOADS
*RC U880:D0 2.572e-04
*RC U444:B 2.572e-04
*RC add/b_reg_10_:D 2.572e-04
*END

*R_NET r_add_B\[9\] 1.888e-02
*DRIVER r_add_B_reg_9_:Q
*CELL fd4qd1_hd
*C2_R1_C1 9.440e-03 1.366e-02 9.440e-03 
*LOADS
*RC U879:D0 2.579e-04
*RC U445:B 2.579e-04
*RC add/b_reg_9_:D 2.579e-04
*END

*R_NET r_add_B\[8\] 1.888e-02
*DRIVER r_add_B_reg_8_:Q
*CELL fd4qd1_hd
*C2_R1_C1 9.440e-03 1.366e-02 9.440e-03 
*LOADS
*RC U878:D0 2.579e-04
*RC U446:B 2.579e-04
*RC add/b_reg_8_:D 2.579e-04
*END

*R_NET r_add_B\[7\] 1.883e-02
*DRIVER r_add_B_reg_7_:Q
*CELL fd4qd1_hd
*C2_R1_C1 9.415e-03 1.366e-02 9.415e-03 
*LOADS
*RC U877:D0 2.572e-04
*RC U447:B 2.572e-04
*RC add/b_reg_7_:D 2.572e-04
*END

*R_NET r_add_B\[6\] 1.883e-02
*DRIVER r_add_B_reg_6_:Q
*CELL fd4qd1_hd
*C2_R1_C1 9.415e-03 1.366e-02 9.415e-03 
*LOADS
*RC U876:D0 2.572e-04
*RC U448:B 2.572e-04
*RC add/b_reg_6_:D 2.572e-04
*END

*R_NET r_add_B\[5\] 1.888e-02
*DRIVER r_add_B_reg_5_:Q
*CELL fd4qd1_hd
*C2_R1_C1 9.440e-03 1.366e-02 9.440e-03 
*LOADS
*RC U875:D0 2.579e-04
*RC U449:B 2.579e-04
*RC add/b_reg_5_:D 2.579e-04
*END

*R_NET r_add_B\[4\] 1.888e-02
*DRIVER r_add_B_reg_4_:Q
*CELL fd4qd1_hd
*C2_R1_C1 9.440e-03 1.366e-02 9.440e-03 
*LOADS
*RC U874:D0 2.579e-04
*RC U450:B 2.579e-04
*RC add/b_reg_4_:D 2.579e-04
*END

*R_NET r_add_B\[3\] 1.883e-02
*DRIVER r_add_B_reg_3_:Q
*CELL fd4qd1_hd
*C2_R1_C1 9.415e-03 1.366e-02 9.415e-03 
*LOADS
*RC U873:D0 2.572e-04
*RC U451:B 2.572e-04
*RC add/b_reg_3_:D 2.572e-04
*END

*R_NET r_add_B\[2\] 1.883e-02
*DRIVER r_add_B_reg_2_:Q
*CELL fd4qd1_hd
*C2_R1_C1 9.415e-03 1.366e-02 9.415e-03 
*LOADS
*RC U872:D0 2.572e-04
*RC U452:B 2.572e-04
*RC add/b_reg_2_:D 2.572e-04
*END

*R_NET r_add_B\[1\] 1.888e-02
*DRIVER r_add_B_reg_1_:Q
*CELL fd4qd1_hd
*C2_R1_C1 9.440e-03 1.366e-02 9.440e-03 
*LOADS
*RC U871:D0 2.579e-04
*RC U453:B 2.579e-04
*RC add/b_reg_1_:D 2.579e-04
*END
