*SPEF "IEEE 1481-1999"
*DESIGN "converter_i2f"
*DATE "Wed May  6 15:30:07 2020"
*VENDOR "SYNOPSYS INC"
*PROGRAM "Synopsys Design Compiler cmos"
*VERSION "F-2011.09-SP5-3"
*DESIGN_FLOW "SYNTHESIS"
*DIVIDER /
*DELIMITER :
*BUS_DELIMITER []
*T_UNIT 1.0 NS
*C_UNIT 1.0 PF
*R_UNIT 1.0 KOHM
*L_UNIT 1.0 HENRY

*PORTS

i_A\[31\] I *L 0.000e+00 *S 0.000e+00 0.000e+00 
i_A\[30\] I *L 0.000e+00 *S 0.000e+00 0.000e+00 
i_A\[29\] I *L 0.000e+00 *S 0.000e+00 0.000e+00 
i_A\[28\] I *L 0.000e+00 *S 0.000e+00 0.000e+00 
i_A\[27\] I *L 0.000e+00 *S 0.000e+00 0.000e+00 
i_A\[26\] I *L 0.000e+00 *S 0.000e+00 0.000e+00 
i_A\[25\] I *L 0.000e+00 *S 0.000e+00 0.000e+00 
i_A\[24\] I *L 0.000e+00 *S 0.000e+00 0.000e+00 
i_A\[23\] I *L 0.000e+00 *S 0.000e+00 0.000e+00 
i_A\[22\] I *L 0.000e+00 *S 0.000e+00 0.000e+00 
i_A\[21\] I *L 0.000e+00 *S 0.000e+00 0.000e+00 
i_A\[20\] I *L 0.000e+00 *S 0.000e+00 0.000e+00 
i_A\[19\] I *L 0.000e+00 *S 0.000e+00 0.000e+00 
i_A\[18\] I *L 0.000e+00 *S 0.000e+00 0.000e+00 
i_A\[17\] I *L 0.000e+00 *S 0.000e+00 0.000e+00 
i_A\[16\] I *L 0.000e+00 *S 0.000e+00 0.000e+00 
i_A\[15\] I *L 0.000e+00 *S 0.000e+00 0.000e+00 
i_A\[14\] I *L 0.000e+00 *S 0.000e+00 0.000e+00 
i_A\[13\] I *L 0.000e+00 *S 0.000e+00 0.000e+00 
i_A\[12\] I *L 0.000e+00 *S 0.000e+00 0.000e+00 
i_A\[11\] I *L 0.000e+00 *S 0.000e+00 0.000e+00 
i_A\[10\] I *L 0.000e+00 *S 0.000e+00 0.000e+00 
i_A\[9\] I *L 0.000e+00 *S 0.000e+00 0.000e+00 
i_A\[8\] I *L 0.000e+00 *S 0.000e+00 0.000e+00 
i_A\[7\] I *L 0.000e+00 *S 0.000e+00 0.000e+00 
i_A\[6\] I *L 0.000e+00 *S 0.000e+00 0.000e+00 
i_A\[5\] I *L 0.000e+00 *S 0.000e+00 0.000e+00 
i_A\[4\] I *L 0.000e+00 *S 0.000e+00 0.000e+00 
i_A\[3\] I *L 0.000e+00 *S 0.000e+00 0.000e+00 
i_A\[2\] I *L 0.000e+00 *S 0.000e+00 0.000e+00 
i_A\[1\] I *L 0.000e+00 *S 0.000e+00 0.000e+00 
i_A\[0\] I *L 0.000e+00 *S 0.000e+00 0.000e+00 
i_A_STB I *L 0.000e+00 *S 0.000e+00 0.000e+00 
o_A_ACK O *L 1.035e-02 *S 1.586e-01 1.303e-01 
o_Z\[31\] O *L 1.035e-02 *S 1.239e-01 9.944e-02 
o_Z\[30\] O *L 1.035e-02 *S 1.239e-01 9.944e-02 
o_Z\[29\] O *L 1.035e-02 *S 1.239e-01 9.944e-02 
o_Z\[28\] O *L 1.035e-02 *S 1.239e-01 9.944e-02 
o_Z\[27\] O *L 1.035e-02 *S 1.239e-01 9.944e-02 
o_Z\[26\] O *L 1.035e-02 *S 1.239e-01 9.944e-02 
o_Z\[25\] O *L 1.035e-02 *S 1.239e-01 9.944e-02 
o_Z\[24\] O *L 1.035e-02 *S 1.239e-01 9.944e-02 
o_Z\[23\] O *L 1.035e-02 *S 1.239e-01 9.944e-02 
o_Z\[22\] O *L 1.035e-02 *S 1.239e-01 9.944e-02 
o_Z\[21\] O *L 1.035e-02 *S 1.239e-01 9.944e-02 
o_Z\[20\] O *L 1.035e-02 *S 1.239e-01 9.944e-02 
o_Z\[19\] O *L 1.035e-02 *S 1.239e-01 9.944e-02 
o_Z\[18\] O *L 1.035e-02 *S 1.239e-01 9.944e-02 
o_Z\[17\] O *L 1.035e-02 *S 1.239e-01 9.944e-02 
o_Z\[16\] O *L 1.035e-02 *S 1.239e-01 9.944e-02 
o_Z\[15\] O *L 1.035e-02 *S 1.239e-01 9.944e-02 
o_Z\[14\] O *L 1.035e-02 *S 1.239e-01 9.944e-02 
o_Z\[13\] O *L 1.035e-02 *S 1.239e-01 9.944e-02 
o_Z\[12\] O *L 1.035e-02 *S 1.239e-01 9.944e-02 
o_Z\[11\] O *L 1.035e-02 *S 1.239e-01 9.944e-02 
o_Z\[10\] O *L 1.035e-02 *S 1.239e-01 9.944e-02 
o_Z\[9\] O *L 1.035e-02 *S 1.239e-01 9.944e-02 
o_Z\[8\] O *L 1.035e-02 *S 1.239e-01 9.944e-02 
o_Z\[7\] O *L 1.035e-02 *S 1.239e-01 9.944e-02 
o_Z\[6\] O *L 1.035e-02 *S 1.239e-01 9.944e-02 
o_Z\[5\] O *L 1.035e-02 *S 1.239e-01 9.944e-02 
o_Z\[4\] O *L 1.035e-02 *S 1.239e-01 9.944e-02 
o_Z\[3\] O *L 1.035e-02 *S 1.239e-01 9.944e-02 
o_Z\[2\] O *L 1.035e-02 *S 1.239e-01 9.944e-02 
o_Z\[1\] O *L 1.035e-02 *S 1.239e-01 9.944e-02 
o_Z\[0\] O *L 1.035e-02 *S 1.239e-01 9.944e-02 
o_Z_STB O *L 1.035e-02 *S 2.100e-01 1.661e-01 
i_Z_ACK I *L 0.000e+00 *S 0.000e+00 0.000e+00 
i_CLK I *L 0.000e+00 *S 0.000e+00 0.000e+00 
i_RST I *L 0.000e+00 *S 0.000e+00 0.000e+00 

*R_NET i_A\[31\] 4.500e-03
*DRIVER i_A\[31\]
*CELL NULL
*C2_R1_C1 2.250e-03 7.370e-03 2.250e-03 
*LOADS
*RC a_reg_31_:D 3.316e-05
*END

*R_NET i_A\[30\] 4.500e-03
*DRIVER i_A\[30\]
*CELL NULL
*C2_R1_C1 2.250e-03 7.370e-03 2.250e-03 
*LOADS
*RC a_reg_30_:D 3.316e-05
*END

*R_NET i_A\[29\] 4.500e-03
*DRIVER i_A\[29\]
*CELL NULL
*C2_R1_C1 2.250e-03 7.370e-03 2.250e-03 
*LOADS
*RC a_reg_29_:D 3.316e-05
*END

*R_NET i_A\[28\] 4.500e-03
*DRIVER i_A\[28\]
*CELL NULL
*C2_R1_C1 2.250e-03 7.370e-03 2.250e-03 
*LOADS
*RC a_reg_28_:D 3.316e-05
*END

*R_NET i_A\[27\] 4.500e-03
*DRIVER i_A\[27\]
*CELL NULL
*C2_R1_C1 2.250e-03 7.370e-03 2.250e-03 
*LOADS
*RC a_reg_27_:D 3.316e-05
*END

*R_NET i_A\[26\] 4.500e-03
*DRIVER i_A\[26\]
*CELL NULL
*C2_R1_C1 2.250e-03 7.370e-03 2.250e-03 
*LOADS
*RC a_reg_26_:D 3.316e-05
*END

*R_NET i_A\[25\] 4.500e-03
*DRIVER i_A\[25\]
*CELL NULL
*C2_R1_C1 2.250e-03 7.370e-03 2.250e-03 
*LOADS
*RC a_reg_25_:D 3.316e-05
*END

*R_NET i_A\[24\] 4.500e-03
*DRIVER i_A\[24\]
*CELL NULL
*C2_R1_C1 2.250e-03 7.370e-03 2.250e-03 
*LOADS
*RC a_reg_24_:D 3.316e-05
*END

*R_NET i_A\[23\] 4.500e-03
*DRIVER i_A\[23\]
*CELL NULL
*C2_R1_C1 2.250e-03 7.370e-03 2.250e-03 
*LOADS
*RC a_reg_23_:D 3.316e-05
*END

*R_NET i_A\[22\] 4.500e-03
*DRIVER i_A\[22\]
*CELL NULL
*C2_R1_C1 2.250e-03 7.370e-03 2.250e-03 
*LOADS
*RC a_reg_22_:D 3.316e-05
*END

*R_NET i_A\[21\] 4.500e-03
*DRIVER i_A\[21\]
*CELL NULL
*C2_R1_C1 2.250e-03 7.370e-03 2.250e-03 
*LOADS
*RC a_reg_21_:D 3.316e-05
*END

*R_NET i_A\[20\] 4.500e-03
*DRIVER i_A\[20\]
*CELL NULL
*C2_R1_C1 2.250e-03 7.370e-03 2.250e-03 
*LOADS
*RC a_reg_20_:D 3.316e-05
*END

*R_NET i_A\[19\] 4.500e-03
*DRIVER i_A\[19\]
*CELL NULL
*C2_R1_C1 2.250e-03 7.370e-03 2.250e-03 
*LOADS
*RC a_reg_19_:D 3.316e-05
*END

*R_NET i_A\[18\] 4.500e-03
*DRIVER i_A\[18\]
*CELL NULL
*C2_R1_C1 2.250e-03 7.370e-03 2.250e-03 
*LOADS
*RC a_reg_18_:D 3.316e-05
*END

*R_NET i_A\[17\] 4.500e-03
*DRIVER i_A\[17\]
*CELL NULL
*C2_R1_C1 2.250e-03 7.370e-03 2.250e-03 
*LOADS
*RC a_reg_17_:D 3.316e-05
*END

*R_NET i_A\[16\] 4.500e-03
*DRIVER i_A\[16\]
*CELL NULL
*C2_R1_C1 2.250e-03 7.370e-03 2.250e-03 
*LOADS
*RC a_reg_16_:D 3.316e-05
*END

*R_NET i_A\[15\] 4.500e-03
*DRIVER i_A\[15\]
*CELL NULL
*C2_R1_C1 2.250e-03 7.370e-03 2.250e-03 
*LOADS
*RC a_reg_15_:D 3.316e-05
*END

*R_NET i_A\[14\] 4.500e-03
*DRIVER i_A\[14\]
*CELL NULL
*C2_R1_C1 2.250e-03 7.370e-03 2.250e-03 
*LOADS
*RC a_reg_14_:D 3.316e-05
*END

*R_NET i_A\[13\] 4.500e-03
*DRIVER i_A\[13\]
*CELL NULL
*C2_R1_C1 2.250e-03 7.370e-03 2.250e-03 
*LOADS
*RC a_reg_13_:D 3.316e-05
*END

*R_NET i_A\[12\] 4.500e-03
*DRIVER i_A\[12\]
*CELL NULL
*C2_R1_C1 2.250e-03 7.370e-03 2.250e-03 
*LOADS
*RC a_reg_12_:D 3.316e-05
*END

*R_NET i_A\[11\] 4.500e-03
*DRIVER i_A\[11\]
*CELL NULL
*C2_R1_C1 2.250e-03 7.370e-03 2.250e-03 
*LOADS
*RC a_reg_11_:D 3.316e-05
*END

*R_NET i_A\[10\] 4.500e-03
*DRIVER i_A\[10\]
*CELL NULL
*C2_R1_C1 2.250e-03 7.370e-03 2.250e-03 
*LOADS
*RC a_reg_10_:D 3.316e-05
*END

*R_NET i_A\[9\] 4.500e-03
*DRIVER i_A\[9\]
*CELL NULL
*C2_R1_C1 2.250e-03 7.370e-03 2.250e-03 
*LOADS
*RC a_reg_9_:D 3.316e-05
*END

*R_NET i_A\[8\] 4.500e-03
*DRIVER i_A\[8\]
*CELL NULL
*C2_R1_C1 2.250e-03 7.370e-03 2.250e-03 
*LOADS
*RC a_reg_8_:D 3.316e-05
*END

*R_NET i_A\[7\] 4.500e-03
*DRIVER i_A\[7\]
*CELL NULL
*C2_R1_C1 2.250e-03 7.370e-03 2.250e-03 
*LOADS
*RC a_reg_7_:D 3.316e-05
*END

*R_NET i_A\[6\] 4.500e-03
*DRIVER i_A\[6\]
*CELL NULL
*C2_R1_C1 2.250e-03 7.370e-03 2.250e-03 
*LOADS
*RC a_reg_6_:D 3.316e-05
*END

*R_NET i_A\[5\] 4.500e-03
*DRIVER i_A\[5\]
*CELL NULL
*C2_R1_C1 2.250e-03 7.370e-03 2.250e-03 
*LOADS
*RC a_reg_5_:D 3.316e-05
*END

*R_NET i_A\[4\] 4.500e-03
*DRIVER i_A\[4\]
*CELL NULL
*C2_R1_C1 2.250e-03 7.370e-03 2.250e-03 
*LOADS
*RC a_reg_4_:D 3.316e-05
*END

*R_NET i_A\[3\] 4.500e-03
*DRIVER i_A\[3\]
*CELL NULL
*C2_R1_C1 2.250e-03 7.370e-03 2.250e-03 
*LOADS
*RC a_reg_3_:D 3.316e-05
*END

*R_NET i_A\[2\] 4.500e-03
*DRIVER i_A\[2\]
*CELL NULL
*C2_R1_C1 2.250e-03 7.370e-03 2.250e-03 
*LOADS
*RC a_reg_2_:D 3.316e-05
*END

*R_NET i_A\[1\] 4.500e-03
*DRIVER i_A\[1\]
*CELL NULL
*C2_R1_C1 2.250e-03 7.370e-03 2.250e-03 
*LOADS
*RC a_reg_1_:D 3.316e-05
*END

*R_NET i_A\[0\] 4.500e-03
*DRIVER i_A\[0\]
*CELL NULL
*C2_R1_C1 2.250e-03 7.370e-03 2.250e-03 
*LOADS
*RC a_reg_0_:D 3.316e-05
*END

*R_NET i_A_STB 4.720e-03
*DRIVER i_A_STB
*CELL NULL
*C2_R1_C1 2.360e-03 7.370e-03 2.360e-03 
*LOADS
*RC U407:B 3.479e-05
*END

*R_NET o_A_ACK 1.734e-02
*DRIVER o_A_ACK_reg:Q
*CELL fd1d1_hd
*C2_R1_C1 8.670e-03 9.100e-03 8.670e-03 
*LOADS
*RC U407:A 1.578e-04
*RC o_A_ACK 1.578e-04
*END

*R_NET o_Z\[31\] 1.350e-02
*DRIVER o_Z_reg_31_:Q
*CELL fd1eqd1_hd
*C2_R1_C1 6.750e-03 7.370e-03 6.750e-03 
*LOADS
*RC o_Z\[31\] 9.950e-05
*END

*R_NET o_Z\[30\] 1.350e-02
*DRIVER o_Z_reg_30_:Q
*CELL fd1eqd1_hd
*C2_R1_C1 6.750e-03 7.370e-03 6.750e-03 
*LOADS
*RC o_Z\[30\] 9.950e-05
*END

*R_NET o_Z\[29\] 1.350e-02
*DRIVER o_Z_reg_29_:Q
*CELL fd1eqd1_hd
*C2_R1_C1 6.750e-03 7.370e-03 6.750e-03 
*LOADS
*RC o_Z\[29\] 9.950e-05
*END

*R_NET o_Z\[28\] 1.350e-02
*DRIVER o_Z_reg_28_:Q
*CELL fd1eqd1_hd
*C2_R1_C1 6.750e-03 7.370e-03 6.750e-03 
*LOADS
*RC o_Z\[28\] 9.950e-05
*END

*R_NET o_Z\[27\] 1.350e-02
*DRIVER o_Z_reg_27_:Q
*CELL fd1eqd1_hd
*C2_R1_C1 6.750e-03 7.370e-03 6.750e-03 
*LOADS
*RC o_Z\[27\] 9.950e-05
*END

*R_NET o_Z\[26\] 1.350e-02
*DRIVER o_Z_reg_26_:Q
*CELL fd1eqd1_hd
*C2_R1_C1 6.750e-03 7.370e-03 6.750e-03 
*LOADS
*RC o_Z\[26\] 9.950e-05
*END

*R_NET o_Z\[25\] 1.350e-02
*DRIVER o_Z_reg_25_:Q
*CELL fd1eqd1_hd
*C2_R1_C1 6.750e-03 7.370e-03 6.750e-03 
*LOADS
*RC o_Z\[25\] 9.950e-05
*END

*R_NET o_Z\[24\] 1.350e-02
*DRIVER o_Z_reg_24_:Q
*CELL fd1eqd1_hd
*C2_R1_C1 6.750e-03 7.370e-03 6.750e-03 
*LOADS
*RC o_Z\[24\] 9.950e-05
*END

*R_NET o_Z\[23\] 1.350e-02
*DRIVER o_Z_reg_23_:Q
*CELL fd1eqd1_hd
*C2_R1_C1 6.750e-03 7.370e-03 6.750e-03 
*LOADS
*RC o_Z\[23\] 9.950e-05
*END

*R_NET o_Z\[22\] 1.350e-02
*DRIVER o_Z_reg_22_:Q
*CELL fd1eqd1_hd
*C2_R1_C1 6.750e-03 7.370e-03 6.750e-03 
*LOADS
*RC o_Z\[22\] 9.950e-05
*END

*R_NET o_Z\[21\] 1.350e-02
*DRIVER o_Z_reg_21_:Q
*CELL fd1eqd1_hd
*C2_R1_C1 6.750e-03 7.370e-03 6.750e-03 
*LOADS
*RC o_Z\[21\] 9.950e-05
*END

*R_NET o_Z\[20\] 1.350e-02
*DRIVER o_Z_reg_20_:Q
*CELL fd1eqd1_hd
*C2_R1_C1 6.750e-03 7.370e-03 6.750e-03 
*LOADS
*RC o_Z\[20\] 9.950e-05
*END

*R_NET o_Z\[19\] 1.350e-02
*DRIVER o_Z_reg_19_:Q
*CELL fd1eqd1_hd
*C2_R1_C1 6.750e-03 7.370e-03 6.750e-03 
*LOADS
*RC o_Z\[19\] 9.950e-05
*END

*R_NET o_Z\[18\] 1.350e-02
*DRIVER o_Z_reg_18_:Q
*CELL fd1eqd1_hd
*C2_R1_C1 6.750e-03 7.370e-03 6.750e-03 
*LOADS
*RC o_Z\[18\] 9.950e-05
*END

*R_NET o_Z\[17\] 1.350e-02
*DRIVER o_Z_reg_17_:Q
*CELL fd1eqd1_hd
*C2_R1_C1 6.750e-03 7.370e-03 6.750e-03 
*LOADS
*RC o_Z\[17\] 9.950e-05
*END

*R_NET o_Z\[16\] 1.350e-02
*DRIVER o_Z_reg_16_:Q
*CELL fd1eqd1_hd
*C2_R1_C1 6.750e-03 7.370e-03 6.750e-03 
*LOADS
*RC o_Z\[16\] 9.950e-05
*END

*R_NET o_Z\[15\] 1.350e-02
*DRIVER o_Z_reg_15_:Q
*CELL fd1eqd1_hd
*C2_R1_C1 6.750e-03 7.370e-03 6.750e-03 
*LOADS
*RC o_Z\[15\] 9.950e-05
*END

*R_NET o_Z\[14\] 1.350e-02
*DRIVER o_Z_reg_14_:Q
*CELL fd1eqd1_hd
*C2_R1_C1 6.750e-03 7.370e-03 6.750e-03 
*LOADS
*RC o_Z\[14\] 9.950e-05
*END

*R_NET o_Z\[13\] 1.350e-02
*DRIVER o_Z_reg_13_:Q
*CELL fd1eqd1_hd
*C2_R1_C1 6.750e-03 7.370e-03 6.750e-03 
*LOADS
*RC o_Z\[13\] 9.950e-05
*END

*R_NET o_Z\[12\] 1.350e-02
*DRIVER o_Z_reg_12_:Q
*CELL fd1eqd1_hd
*C2_R1_C1 6.750e-03 7.370e-03 6.750e-03 
*LOADS
*RC o_Z\[12\] 9.950e-05
*END

*R_NET o_Z\[11\] 1.350e-02
*DRIVER o_Z_reg_11_:Q
*CELL fd1eqd1_hd
*C2_R1_C1 6.750e-03 7.370e-03 6.750e-03 
*LOADS
*RC o_Z\[11\] 9.950e-05
*END

*R_NET o_Z\[10\] 1.350e-02
*DRIVER o_Z_reg_10_:Q
*CELL fd1eqd1_hd
*C2_R1_C1 6.750e-03 7.370e-03 6.750e-03 
*LOADS
*RC o_Z\[10\] 9.950e-05
*END

*R_NET o_Z\[9\] 1.350e-02
*DRIVER o_Z_reg_9_:Q
*CELL fd1eqd1_hd
*C2_R1_C1 6.750e-03 7.370e-03 6.750e-03 
*LOADS
*RC o_Z\[9\] 9.950e-05
*END

*R_NET o_Z\[8\] 1.350e-02
*DRIVER o_Z_reg_8_:Q
*CELL fd1eqd1_hd
*C2_R1_C1 6.750e-03 7.370e-03 6.750e-03 
*LOADS
*RC o_Z\[8\] 9.950e-05
*END

*R_NET o_Z\[7\] 1.350e-02
*DRIVER o_Z_reg_7_:Q
*CELL fd1eqd1_hd
*C2_R1_C1 6.750e-03 7.370e-03 6.750e-03 
*LOADS
*RC o_Z\[7\] 9.950e-05
*END

*R_NET o_Z\[6\] 1.350e-02
*DRIVER o_Z_reg_6_:Q
*CELL fd1eqd1_hd
*C2_R1_C1 6.750e-03 7.370e-03 6.750e-03 
*LOADS
*RC o_Z\[6\] 9.950e-05
*END

*R_NET o_Z\[5\] 1.350e-02
*DRIVER o_Z_reg_5_:Q
*CELL fd1eqd1_hd
*C2_R1_C1 6.750e-03 7.370e-03 6.750e-03 
*LOADS
*RC o_Z\[5\] 9.950e-05
*END

*R_NET o_Z\[4\] 1.350e-02
*DRIVER o_Z_reg_4_:Q
*CELL fd1eqd1_hd
*C2_R1_C1 6.750e-03 7.370e-03 6.750e-03 
*LOADS
*RC o_Z\[4\] 9.950e-05
*END

*R_NET o_Z\[3\] 1.350e-02
*DRIVER o_Z_reg_3_:Q
*CELL fd1eqd1_hd
*C2_R1_C1 6.750e-03 7.370e-03 6.750e-03 
*LOADS
*RC o_Z\[3\] 9.950e-05
*END

*R_NET o_Z\[2\] 1.350e-02
*DRIVER o_Z_reg_2_:Q
*CELL fd1eqd1_hd
*C2_R1_C1 6.750e-03 7.370e-03 6.750e-03 
*LOADS
*RC o_Z\[2\] 9.950e-05
*END

*R_NET o_Z\[1\] 1.350e-02
*DRIVER o_Z_reg_1_:Q
*CELL fd1eqd1_hd
*C2_R1_C1 6.750e-03 7.370e-03 6.750e-03 
*LOADS
*RC o_Z\[1\] 9.950e-05
*END

*R_NET o_Z\[0\] 1.350e-02
*DRIVER o_Z_reg_0_:Q
*CELL fd1eqd1_hd
*C2_R1_C1 6.750e-03 7.370e-03 6.750e-03 
*LOADS
*RC o_Z\[0\] 9.950e-05
*END

*R_NET o_Z_STB 2.400e-02
*DRIVER o_Z_STB_reg:Q
*CELL fd1qd1_hd
*C2_R1_C1 1.200e-02 9.460e-03 1.200e-02 
*LOADS
*RC U260:A 2.270e-04
*RC U595:B 2.270e-04
*RC o_Z_STB 2.270e-04
*END

*R_NET i_Z_ACK 5.190e-03
*DRIVER i_Z_ACK
*CELL NULL
*C2_R1_C1 2.595e-03 7.370e-03 2.595e-03 
*LOADS
*RC U260:B 3.825e-05
*END

*R_NET i_CLK 1.848e+00
*DRIVER i_CLK
*CELL NULL
*C2_R1_C1 9.240e-01 0.000e+00 9.240e-01 
*LOADS
*RC o_A_ACK_reg:CK 0.000e+00
*RC sticky_reg:CK 0.000e+00
*RC value_reg_0_:CK 0.000e+00
*RC z_r_reg_5_:CK 0.000e+00
*RC z_r_reg_6_:CK 0.000e+00
*RC z_r_reg_2_:CK 0.000e+00
*RC z_r_reg_0_:CK 0.000e+00
*RC z_r_reg_7_:CK 0.000e+00
*RC z_r_reg_1_:CK 0.000e+00
*RC z_r_reg_4_:CK 0.000e+00
*RC z_r_reg_3_:CK 0.000e+00
*RC o_Z_STB_reg:CK 0.000e+00
*RC state_reg_1_:CK 0.000e+00
*RC state_reg_0_:CK 0.000e+00
*RC state_reg_2_:CK 0.000e+00
*RC value_reg_17_:CK 0.000e+00
*RC value_reg_13_:CK 0.000e+00
*RC value_reg_11_:CK 0.000e+00
*RC value_reg_7_:CK 0.000e+00
*RC value_reg_15_:CK 0.000e+00
*RC value_reg_9_:CK 0.000e+00
*RC value_reg_30_:CK 0.000e+00
*RC value_reg_31_:CK 0.000e+00
*RC z_e_reg_2_:CK 0.000e+00
*RC z_e_reg_1_:CK 0.000e+00
*RC value_reg_5_:CK 0.000e+00
*RC value_reg_3_:CK 0.000e+00
*RC value_reg_1_:CK 0.000e+00
*RC value_reg_24_:CK 0.000e+00
*RC value_reg_12_:CK 0.000e+00
*RC value_reg_22_:CK 0.000e+00
*RC value_reg_28_:CK 0.000e+00
*RC value_reg_26_:CK 0.000e+00
*RC value_reg_2_:CK 0.000e+00
*RC value_reg_10_:CK 0.000e+00
*RC value_reg_8_:CK 0.000e+00
*RC z_m_reg_0_:CK 0.000e+00
*RC z_m_reg_19_:CK 0.000e+00
*RC z_m_reg_7_:CK 0.000e+00
*RC z_e_reg_0_:CK 0.000e+00
*RC z_e_reg_5_:CK 0.000e+00
*RC z_m_reg_15_:CK 0.000e+00
*RC z_m_reg_3_:CK 0.000e+00
*RC z_m_reg_11_:CK 0.000e+00
*RC value_reg_18_:CK 0.000e+00
*RC value_reg_16_:CK 0.000e+00
*RC value_reg_14_:CK 0.000e+00
*RC value_reg_6_:CK 0.000e+00
*RC value_reg_4_:CK 0.000e+00
*RC value_reg_20_:CK 0.000e+00
*RC value_reg_27_:CK 0.000e+00
*RC value_reg_25_:CK 0.000e+00
*RC value_reg_23_:CK 0.000e+00
*RC value_reg_21_:CK 0.000e+00
*RC value_reg_29_:CK 0.000e+00
*RC value_reg_19_:CK 0.000e+00
*RC z_e_reg_4_:CK 0.000e+00
*RC z_e_reg_6_:CK 0.000e+00
*RC z_e_reg_3_:CK 0.000e+00
*RC z_e_reg_7_:CK 0.000e+00
*RC z_m_reg_12_:CK 0.000e+00
*RC z_m_reg_8_:CK 0.000e+00
*RC z_m_reg_16_:CK 0.000e+00
*RC z_m_reg_4_:CK 0.000e+00
*RC z_m_reg_20_:CK 0.000e+00
*RC z_m_reg_5_:CK 0.000e+00
*RC z_reg_12_:CK 0.000e+00
*RC z_reg_13_:CK 0.000e+00
*RC z_reg_14_:CK 0.000e+00
*RC z_reg_21_:CK 0.000e+00
*RC z_reg_22_:CK 0.000e+00
*RC z_reg_0_:CK 0.000e+00
*RC z_reg_1_:CK 0.000e+00
*RC z_reg_2_:CK 0.000e+00
*RC z_reg_3_:CK 0.000e+00
*RC z_reg_4_:CK 0.000e+00
*RC z_reg_5_:CK 0.000e+00
*RC z_reg_6_:CK 0.000e+00
*RC z_reg_7_:CK 0.000e+00
*RC z_reg_8_:CK 0.000e+00
*RC z_reg_23_:CK 0.000e+00
*RC z_reg_24_:CK 0.000e+00
*RC z_reg_25_:CK 0.000e+00
*RC z_reg_26_:CK 0.000e+00
*RC z_reg_27_:CK 0.000e+00
*RC z_reg_28_:CK 0.000e+00
*RC z_reg_29_:CK 0.000e+00
*RC z_reg_30_:CK 0.000e+00
*RC z_reg_31_:CK 0.000e+00
*RC a_reg_6_:CK 0.000e+00
*RC a_reg_7_:CK 0.000e+00
*RC a_reg_8_:CK 0.000e+00
*RC a_reg_9_:CK 0.000e+00
*RC a_reg_10_:CK 0.000e+00
*RC a_reg_11_:CK 0.000e+00
*RC a_reg_0_:CK 0.000e+00
*RC a_reg_1_:CK 0.000e+00
*RC a_reg_2_:CK 0.000e+00
*RC a_reg_3_:CK 0.000e+00
*RC a_reg_4_:CK 0.000e+00
*RC a_reg_5_:CK 0.000e+00
*RC a_reg_24_:CK 0.000e+00
*RC a_reg_25_:CK 0.000e+00
*RC a_reg_26_:CK 0.000e+00
*RC a_reg_27_:CK 0.000e+00
*RC a_reg_28_:CK 0.000e+00
*RC a_reg_29_:CK 0.000e+00
*RC o_Z_reg_12_:CK 0.000e+00
*RC o_Z_reg_13_:CK 0.000e+00
*RC o_Z_reg_14_:CK 0.000e+00
*RC o_Z_reg_21_:CK 0.000e+00
*RC o_Z_reg_22_:CK 0.000e+00
*RC z_reg_9_:CK 0.000e+00
*RC z_reg_10_:CK 0.000e+00
*RC z_reg_11_:CK 0.000e+00
*RC z_reg_15_:CK 0.000e+00
*RC z_reg_20_:CK 0.000e+00
*RC o_Z_reg_0_:CK 0.000e+00
*RC o_Z_reg_1_:CK 0.000e+00
*RC o_Z_reg_2_:CK 0.000e+00
*RC o_Z_reg_3_:CK 0.000e+00
*RC o_Z_reg_4_:CK 0.000e+00
*RC o_Z_reg_5_:CK 0.000e+00
*RC o_Z_reg_6_:CK 0.000e+00
*RC o_Z_reg_7_:CK 0.000e+00
*RC o_Z_reg_8_:CK 0.000e+00
*RC o_Z_reg_23_:CK 0.000e+00
*RC o_Z_reg_24_:CK 0.000e+00
*RC o_Z_reg_25_:CK 0.000e+00
*RC o_Z_reg_26_:CK 0.000e+00
*RC o_Z_reg_27_:CK 0.000e+00
*RC o_Z_reg_28_:CK 0.000e+00
*RC o_Z_reg_29_:CK 0.000e+00
*RC o_Z_reg_30_:CK 0.000e+00
*RC o_Z_reg_31_:CK 0.000e+00
*RC a_reg_12_:CK 0.000e+00
*RC a_reg_13_:CK 0.000e+00
*RC a_reg_14_:CK 0.000e+00
*RC a_reg_15_:CK 0.000e+00
*RC a_reg_16_:CK 0.000e+00
*RC a_reg_17_:CK 0.000e+00
*RC a_reg_23_:CK 0.000e+00
*RC a_reg_30_:CK 0.000e+00
*RC a_reg_31_:CK 0.000e+00
*RC a_reg_19_:CK 0.000e+00
*RC a_reg_20_:CK 0.000e+00
*RC a_reg_21_:CK 0.000e+00
*RC a_reg_22_:CK 0.000e+00
*RC o_Z_reg_9_:CK 0.000e+00
*RC o_Z_reg_10_:CK 0.000e+00
*RC o_Z_reg_11_:CK 0.000e+00
*RC o_Z_reg_15_:CK 0.000e+00
*RC o_Z_reg_16_:CK 0.000e+00
*RC z_reg_16_:CK 0.000e+00
*RC z_reg_17_:CK 0.000e+00
*RC z_reg_18_:CK 0.000e+00
*RC z_reg_19_:CK 0.000e+00
*RC guard_reg:CK 0.000e+00
*RC round_bit_reg:CK 0.000e+00
*RC a_reg_18_:CK 0.000e+00
*RC o_Z_reg_17_:CK 0.000e+00
*RC o_Z_reg_18_:CK 0.000e+00
*RC o_Z_reg_19_:CK 0.000e+00
*RC o_Z_reg_20_:CK 0.000e+00
*RC z_s_reg:CK 0.000e+00
*RC z_m_reg_2_:CK 0.000e+00
*RC z_m_reg_1_:CK 0.000e+00
*RC z_m_reg_21_:CK 0.000e+00
*RC z_m_reg_22_:CK 0.000e+00
*RC z_m_reg_18_:CK 0.000e+00
*RC z_m_reg_14_:CK 0.000e+00
*RC z_m_reg_6_:CK 0.000e+00
*RC z_m_reg_10_:CK 0.000e+00
*RC z_m_reg_17_:CK 0.000e+00
*RC z_m_reg_13_:CK 0.000e+00
*RC z_m_reg_23_:CK 0.000e+00
*RC z_m_reg_9_:CK 0.000e+00
*END

*R_NET state\[2\] 2.591e-02
*DRIVER state_reg_2_:Q
*CELL fd1qd1_hd
*C2_R1_C1 1.296e-02 1.549e-02 1.296e-02 
*LOADS
*RC U261:A 4.013e-04
*RC U453:A 4.013e-04
*RC U351:A 4.013e-04
*RC U451:A 4.013e-04
*RC U455:A 4.013e-04
*END

*R_NET state\[1\] 2.625e-02
*DRIVER state_reg_1_:Q
*CELL fd1qd1_hd
*C2_R1_C1 1.313e-02 1.549e-02 1.313e-02 
*LOADS
*RC U238:A 4.066e-04
*RC U251:A 4.066e-04
*RC U450:A 4.066e-04
*RC U452:A 4.066e-04
*RC U455:B 4.066e-04
*END

*R_NET state\[0\] 9.660e-03
*DRIVER state_reg_0_:Q
*CELL fd1qd1_hd
*C2_R1_C1 4.830e-03 9.100e-03 4.830e-03 
*LOADS
*RC U363:A 8.791e-05
*RC U423:A 8.791e-05
*END

*R_NET a\[30\] 1.555e-02
*DRIVER a_reg_30_:Q
*CELL fd1eqd1_hd
*C2_R1_C1 7.775e-03 9.460e-03 7.775e-03 
*LOADS
*RC U302:A 1.471e-04
*RC U324:AN 1.471e-04
*RC U593:A 1.471e-04
*END

*R_NET a\[29\] 1.683e-02
*DRIVER a_reg_29_:Q
*CELL fd1eqd1_hd
*C2_R1_C1 8.415e-03 9.460e-03 8.415e-03 
*LOADS
*RC U325:A 1.592e-04
*RC U590:A 1.592e-04
*RC U591:C 1.592e-04
*END

*R_NET a\[28\] 5.220e-03
*DRIVER a_reg_28_:Q
*CELL fd1eqd1_hd
*C2_R1_C1 2.610e-03 7.370e-03 2.610e-03 
*LOADS
*RC U393:A 3.847e-05
*END

*R_NET a\[27\] 1.683e-02
*DRIVER a_reg_27_:Q
*CELL fd1eqd1_hd
*C2_R1_C1 8.415e-03 9.460e-03 8.415e-03 
*LOADS
*RC U283:A 1.592e-04
*RC U583:A 1.592e-04
*RC U584:C 1.592e-04
*END

*R_NET a\[26\] 5.220e-03
*DRIVER a_reg_26_:Q
*CELL fd1eqd1_hd
*C2_R1_C1 2.610e-03 7.370e-03 2.610e-03 
*LOADS
*RC U394:A 3.847e-05
*END

*R_NET a\[25\] 1.683e-02
*DRIVER a_reg_25_:Q
*CELL fd1eqd1_hd
*C2_R1_C1 8.415e-03 9.460e-03 8.415e-03 
*LOADS
*RC U284:A 1.592e-04
*RC U576:A 1.592e-04
*RC U577:C 1.592e-04
*END

*R_NET a\[24\] 5.220e-03
*DRIVER a_reg_24_:Q
*CELL fd1eqd1_hd
*C2_R1_C1 2.610e-03 7.370e-03 2.610e-03 
*LOADS
*RC U395:A 3.847e-05
*END

*R_NET a\[23\] 1.683e-02
*DRIVER a_reg_23_:Q
*CELL fd1eqd1_hd
*C2_R1_C1 8.415e-03 9.460e-03 8.415e-03 
*LOADS
*RC U285:A 1.592e-04
*RC U569:A 1.592e-04
*RC U570:C 1.592e-04
*END

*R_NET a\[22\] 5.220e-03
*DRIVER a_reg_22_:Q
*CELL fd1eqd1_hd
*C2_R1_C1 2.610e-03 7.370e-03 2.610e-03 
*LOADS
*RC U396:A 3.847e-05
*END

*R_NET a\[21\] 1.683e-02
*DRIVER a_reg_21_:Q
*CELL fd1eqd1_hd
*C2_R1_C1 8.415e-03 9.460e-03 8.415e-03 
*LOADS
*RC U320:A 1.592e-04
*RC U562:A 1.592e-04
*RC U563:C 1.592e-04
*END

*R_NET a\[20\] 5.220e-03
*DRIVER a_reg_20_:Q
*CELL fd1eqd1_hd
*C2_R1_C1 2.610e-03 7.370e-03 2.610e-03 
*LOADS
*RC U397:A 3.847e-05
*END

*R_NET a\[19\] 1.683e-02
*DRIVER a_reg_19_:Q
*CELL fd1eqd1_hd
*C2_R1_C1 8.415e-03 9.460e-03 8.415e-03 
*LOADS
*RC U326:A 1.592e-04
*RC U555:A 1.592e-04
*RC U556:C 1.592e-04
*END

*R_NET a\[18\] 5.220e-03
*DRIVER a_reg_18_:Q
*CELL fd1eqd1_hd
*C2_R1_C1 2.610e-03 7.370e-03 2.610e-03 
*LOADS
*RC U398:A 3.847e-05
*END

*R_NET a\[17\] 1.683e-02
*DRIVER a_reg_17_:Q
*CELL fd1eqd1_hd
*C2_R1_C1 8.415e-03 9.460e-03 8.415e-03 
*LOADS
*RC U327:A 1.592e-04
*RC U548:A 1.592e-04
*RC U549:C 1.592e-04
*END

*R_NET a\[16\] 5.220e-03
*DRIVER a_reg_16_:Q
*CELL fd1eqd1_hd
*C2_R1_C1 2.610e-03 7.370e-03 2.610e-03 
*LOADS
*RC U399:A 3.847e-05
*END

*R_NET a\[15\] 1.683e-02
*DRIVER a_reg_15_:Q
*CELL fd1eqd1_hd
*C2_R1_C1 8.415e-03 9.460e-03 8.415e-03 
*LOADS
*RC U328:A 1.592e-04
*RC U541:A 1.592e-04
*RC U542:C 1.592e-04
*END

*R_NET a\[14\] 5.220e-03
*DRIVER a_reg_14_:Q
*CELL fd1eqd1_hd
*C2_R1_C1 2.610e-03 7.370e-03 2.610e-03 
*LOADS
*RC U400:A 3.847e-05
*END

*R_NET a\[13\] 1.683e-02
*DRIVER a_reg_13_:Q
*CELL fd1eqd1_hd
*C2_R1_C1 8.415e-03 9.460e-03 8.415e-03 
*LOADS
*RC U377:A 1.592e-04
*RC U534:A 1.592e-04
*RC U535:C 1.592e-04
*END

*R_NET a\[12\] 5.220e-03
*DRIVER a_reg_12_:Q
*CELL fd1eqd1_hd
*C2_R1_C1 2.610e-03 7.370e-03 2.610e-03 
*LOADS
*RC U401:A 3.847e-05
*END

*R_NET a\[11\] 1.683e-02
*DRIVER a_reg_11_:Q
*CELL fd1eqd1_hd
*C2_R1_C1 8.415e-03 9.460e-03 8.415e-03 
*LOADS
*RC U378:A 1.592e-04
*RC U527:A 1.592e-04
*RC U528:C 1.592e-04
*END

*R_NET a\[10\] 5.220e-03
*DRIVER a_reg_10_:Q
*CELL fd1eqd1_hd
*C2_R1_C1 2.610e-03 7.370e-03 2.610e-03 
*LOADS
*RC U402:A 3.847e-05
*END

*R_NET a\[9\] 1.683e-02
*DRIVER a_reg_9_:Q
*CELL fd1eqd1_hd
*C2_R1_C1 8.415e-03 9.460e-03 8.415e-03 
*LOADS
*RC U379:A 1.592e-04
*RC U520:A 1.592e-04
*RC U521:C 1.592e-04
*END

*R_NET a\[8\] 5.220e-03
*DRIVER a_reg_8_:Q
*CELL fd1eqd1_hd
*C2_R1_C1 2.610e-03 7.370e-03 2.610e-03 
*LOADS
*RC U403:A 3.847e-05
*END

*R_NET a\[7\] 1.683e-02
*DRIVER a_reg_7_:Q
*CELL fd1eqd1_hd
*C2_R1_C1 8.415e-03 9.460e-03 8.415e-03 
*LOADS
*RC U380:A 1.592e-04
*RC U513:A 1.592e-04
*RC U514:C 1.592e-04
*END

*R_NET a\[6\] 5.220e-03
*DRIVER a_reg_6_:Q
*CELL fd1eqd1_hd
*C2_R1_C1 2.610e-03 7.370e-03 2.610e-03 
*LOADS
*RC U387:A 3.847e-05
*END

*R_NET a\[5\] 1.683e-02
*DRIVER a_reg_5_:Q
*CELL fd1eqd1_hd
*C2_R1_C1 8.415e-03 9.460e-03 8.415e-03 
*LOADS
*RC U383:A 1.592e-04
*RC U506:A 1.592e-04
*RC U507:C 1.592e-04
*END

*R_NET a\[4\] 5.220e-03
*DRIVER a_reg_4_:Q
*CELL fd1eqd1_hd
*C2_R1_C1 2.610e-03 7.370e-03 2.610e-03 
*LOADS
*RC U388:A 3.847e-05
*END

*R_NET a\[3\] 1.683e-02
*DRIVER a_reg_3_:Q
*CELL fd1eqd1_hd
*C2_R1_C1 8.415e-03 9.460e-03 8.415e-03 
*LOADS
*RC U384:A 1.592e-04
*RC U499:A 1.592e-04
*RC U500:C 1.592e-04
*END

*R_NET a\[2\] 5.220e-03
*DRIVER a_reg_2_:Q
*CELL fd1eqd1_hd
*C2_R1_C1 2.610e-03 7.370e-03 2.610e-03 
*LOADS
*RC U389:A 3.847e-05
*END

*R_NET a\[1\] 1.677e-02
*DRIVER a_reg_1_:Q
*CELL fd1eqd1_hd
*C2_R1_C1 8.385e-03 9.460e-03 8.385e-03 
*LOADS
*RC U464:A 1.586e-04
*RC U492:A 1.586e-04
*RC U493:A 1.586e-04
*END

*R_NET value\[31\] 9.700e-03
*DRIVER value_reg_31_:Q
*CELL fd1qd1_hd
*C2_R1_C1 4.850e-03 9.100e-03 4.850e-03 
*LOADS
*RC U488:B 8.827e-05
*RC U594:D 8.827e-05
*END

*R_NET value\[30\] 9.650e-03
*DRIVER value_reg_30_:Q
*CELL fd1qd1_hd
*C2_R1_C1 4.825e-03 9.100e-03 4.825e-03 
*LOADS
*RC U429:A 8.781e-05
*RC U693:B 8.781e-05
*END

*R_NET value\[29\] 1.085e-02
*DRIVER value_reg_29_:Q
*CELL fd1qd1_hd
*C2_R1_C1 5.425e-03 9.100e-03 5.425e-03 
*LOADS
*RC U590:C 9.874e-05
*RC U691:B 9.874e-05
*END

*R_NET value\[28\] 1.077e-02
*DRIVER value_reg_28_:Q
*CELL fd1qd1_hd
*C2_R1_C1 5.385e-03 9.100e-03 5.385e-03 
*LOADS
*RC U587:A 9.801e-05
*RC U689:B 9.801e-05
*END

*R_NET value\[27\] 1.085e-02
*DRIVER value_reg_27_:Q
*CELL fd1qd1_hd
*C2_R1_C1 5.425e-03 9.100e-03 5.425e-03 
*LOADS
*RC U583:C 9.874e-05
*RC U684:B 9.874e-05
*END

*R_NET value\[26\] 1.077e-02
*DRIVER value_reg_26_:Q
*CELL fd1qd1_hd
*C2_R1_C1 5.385e-03 9.100e-03 5.385e-03 
*LOADS
*RC U580:A 9.801e-05
*RC U682:B 9.801e-05
*END

*R_NET value\[25\] 1.085e-02
*DRIVER value_reg_25_:Q
*CELL fd1qd1_hd
*C2_R1_C1 5.425e-03 9.100e-03 5.425e-03 
*LOADS
*RC U576:C 9.874e-05
*RC U676:B 9.874e-05
*END

*R_NET value\[24\] 1.077e-02
*DRIVER value_reg_24_:Q
*CELL fd1qd1_hd
*C2_R1_C1 5.385e-03 9.100e-03 5.385e-03 
*LOADS
*RC U573:A 9.801e-05
*RC U673:B 9.801e-05
*END

*R_NET value\[23\] 1.085e-02
*DRIVER value_reg_23_:Q
*CELL fd1qd1_hd
*C2_R1_C1 5.425e-03 9.100e-03 5.425e-03 
*LOADS
*RC U569:C 9.874e-05
*RC U668:B 9.874e-05
*END

*R_NET value\[22\] 1.077e-02
*DRIVER value_reg_22_:Q
*CELL fd1qd1_hd
*C2_R1_C1 5.385e-03 9.100e-03 5.385e-03 
*LOADS
*RC U566:A 9.801e-05
*RC U666:B 9.801e-05
*END

*R_NET value\[21\] 1.085e-02
*DRIVER value_reg_21_:Q
*CELL fd1qd1_hd
*C2_R1_C1 5.425e-03 9.100e-03 5.425e-03 
*LOADS
*RC U562:C 9.874e-05
*RC U660:B 9.874e-05
*END

*R_NET value\[20\] 1.077e-02
*DRIVER value_reg_20_:Q
*CELL fd1qd1_hd
*C2_R1_C1 5.385e-03 9.100e-03 5.385e-03 
*LOADS
*RC U559:A 9.801e-05
*RC U657:B 9.801e-05
*END

*R_NET value\[19\] 1.085e-02
*DRIVER value_reg_19_:Q
*CELL fd1qd1_hd
*C2_R1_C1 5.425e-03 9.100e-03 5.425e-03 
*LOADS
*RC U555:C 9.874e-05
*RC U652:B 9.874e-05
*END

*R_NET value\[18\] 1.077e-02
*DRIVER value_reg_18_:Q
*CELL fd1qd1_hd
*C2_R1_C1 5.385e-03 9.100e-03 5.385e-03 
*LOADS
*RC U552:A 9.801e-05
*RC U650:B 9.801e-05
*END

*R_NET value\[17\] 1.085e-02
*DRIVER value_reg_17_:Q
*CELL fd1qd1_hd
*C2_R1_C1 5.425e-03 9.100e-03 5.425e-03 
*LOADS
*RC U548:C 9.874e-05
*RC U645:B 9.874e-05
*END

*R_NET value\[16\] 1.077e-02
*DRIVER value_reg_16_:Q
*CELL fd1qd1_hd
*C2_R1_C1 5.385e-03 9.100e-03 5.385e-03 
*LOADS
*RC U545:A 9.801e-05
*RC U642:B 9.801e-05
*END

*R_NET value\[15\] 1.085e-02
*DRIVER value_reg_15_:Q
*CELL fd1qd1_hd
*C2_R1_C1 5.425e-03 9.100e-03 5.425e-03 
*LOADS
*RC U541:C 9.874e-05
*RC U637:B 9.874e-05
*END

*R_NET value\[14\] 1.077e-02
*DRIVER value_reg_14_:Q
*CELL fd1qd1_hd
*C2_R1_C1 5.385e-03 9.100e-03 5.385e-03 
*LOADS
*RC U538:A 9.801e-05
*RC U635:B 9.801e-05
*END

*R_NET value\[13\] 1.085e-02
*DRIVER value_reg_13_:Q
*CELL fd1qd1_hd
*C2_R1_C1 5.425e-03 9.100e-03 5.425e-03 
*LOADS
*RC U534:C 9.874e-05
*RC U629:B 9.874e-05
*END

*R_NET value\[12\] 1.077e-02
*DRIVER value_reg_12_:Q
*CELL fd1qd1_hd
*C2_R1_C1 5.385e-03 9.100e-03 5.385e-03 
*LOADS
*RC U531:A 9.801e-05
*RC U626:B 9.801e-05
*END

*R_NET value\[11\] 1.085e-02
*DRIVER value_reg_11_:Q
*CELL fd1qd1_hd
*C2_R1_C1 5.425e-03 9.100e-03 5.425e-03 
*LOADS
*RC U527:C 9.874e-05
*RC U621:B 9.874e-05
*END

*R_NET value\[10\] 9.670e-03
*DRIVER value_reg_10_:Q
*CELL fd1qd1_hd
*C2_R1_C1 4.835e-03 9.100e-03 4.835e-03 
*LOADS
*RC U524:A 8.800e-05
*RC U620:B 8.800e-05
*END

*R_NET value\[9\] 1.085e-02
*DRIVER value_reg_9_:Q
*CELL fd1qd1_hd
*C2_R1_C1 5.425e-03 9.100e-03 5.425e-03 
*LOADS
*RC U520:C 9.874e-05
*RC U614:B 9.874e-05
*END

*R_NET value\[8\] 1.077e-02
*DRIVER value_reg_8_:Q
*CELL fd1qd1_hd
*C2_R1_C1 5.385e-03 9.100e-03 5.385e-03 
*LOADS
*RC U517:A 9.801e-05
*RC U612:B 9.801e-05
*END

*R_NET value\[7\] 1.085e-02
*DRIVER value_reg_7_:Q
*CELL fd1qd1_hd
*C2_R1_C1 5.425e-03 9.100e-03 5.425e-03 
*LOADS
*RC U513:C 9.874e-05
*RC U610:B 9.874e-05
*END

*R_NET value\[6\] 1.077e-02
*DRIVER value_reg_6_:Q
*CELL fd1qd1_hd
*C2_R1_C1 5.385e-03 9.100e-03 5.385e-03 
*LOADS
*RC U510:A 9.801e-05
*RC U596:B 9.801e-05
*END

*R_NET value\[5\] 1.085e-02
*DRIVER value_reg_5_:Q
*CELL fd1qd1_hd
*C2_R1_C1 5.425e-03 9.100e-03 5.425e-03 
*LOADS
*RC U506:C 9.874e-05
*RC U606:B 9.874e-05
*END

*R_NET value\[4\] 1.077e-02
*DRIVER value_reg_4_:Q
*CELL fd1qd1_hd
*C2_R1_C1 5.385e-03 9.100e-03 5.385e-03 
*LOADS
*RC U503:A 9.801e-05
*RC U604:B 9.801e-05
*END

*R_NET value\[3\] 1.085e-02
*DRIVER value_reg_3_:Q
*CELL fd1qd1_hd
*C2_R1_C1 5.425e-03 9.100e-03 5.425e-03 
*LOADS
*RC U499:C 9.874e-05
*RC U602:B 9.874e-05
*END

*R_NET value\[2\] 1.077e-02
*DRIVER value_reg_2_:Q
*CELL fd1qd1_hd
*C2_R1_C1 5.385e-03 9.100e-03 5.385e-03 
*LOADS
*RC U496:A 9.801e-05
*RC U600:B 9.801e-05
*END

*R_NET value\[1\] 1.085e-02
*DRIVER value_reg_1_:Q
*CELL fd1qd1_hd
*C2_R1_C1 5.425e-03 9.100e-03 5.425e-03 
*LOADS
*RC U492:C 9.874e-05
*RC U598:B 9.874e-05
*END

*R_NET value\[0\] 8.610e-03
*DRIVER value_reg_0_:Q
*CELL fd1qd1_hd
*C2_R1_C1 4.305e-03 9.100e-03 4.305e-03 
*LOADS
*RC U330:C 7.835e-05
*RC U365:B 7.835e-05
*END

*R_NET z_e\[7\] 1.660e-02
*DRIVER z_e_reg_7_:Q
*CELL fd1qd1_hd
*C2_R1_C1 8.300e-03 9.460e-03 8.300e-03 
*LOADS
*RC U329:A 1.570e-04
*RC U701:A 1.570e-04
*RC U707:C 1.570e-04
*END

*R_NET z_e\[6\] 2.305e-02
*DRIVER z_e_reg_6_:Q
*CELL fd1qd1_hd
*C2_R1_C1 1.152e-02 1.094e-02 1.152e-02 
*LOADS
*RC U439:A 2.522e-04
*RC U706:A 2.522e-04
*RC U707:A 2.522e-04
*RC U711:A 2.522e-04
*END

*R_NET z_e\[5\] 2.483e-02
*DRIVER z_e_reg_5_:Q
*CELL fd1qd1_hd
*C2_R1_C1 1.242e-02 1.549e-02 1.242e-02 
*LOADS
*RC U264:A 3.846e-04
*RC U703:A 3.846e-04
*RC U432:A 3.846e-04
*RC U460:A 3.846e-04
*RC U710:A 3.846e-04
*END

*R_NET z_e\[4\] 1.583e-02
*DRIVER z_e_reg_4_:Q
*CELL fd1qd1_hd
*C2_R1_C1 7.915e-03 9.460e-03 7.915e-03 
*LOADS
*RC U242:A 1.498e-04
*RC U440:A 1.498e-04
*RC U722:A 1.498e-04
*END

*R_NET z_e\[3\] 1.517e-02
*DRIVER z_e_reg_3_:Q
*CELL fd1qd1_hd
*C2_R1_C1 7.585e-03 9.460e-03 7.585e-03 
*LOADS
*RC U698:A 1.435e-04
*RC U437:A 1.435e-04
*RC U456:A 1.435e-04
*END

*R_NET z_e\[2\] 1.582e-02
*DRIVER z_e_reg_2_:Q
*CELL fd1qd1_hd