*SPEF "IEEE 1481-1999"
*DESIGN "converter_i2f"
*DATE "Tue Jun  9 04:25:39 2020"
*VENDOR "SYNOPSYS INC"
*PROGRAM "Synopsys Design Compiler cmos"
*VERSION "F-2011.09-SP5-3"
*DESIGN_FLOW "SYNTHESIS"
*DIVIDER /
*DELIMITER :
*BUS_DELIMITER []
*T_UNIT 1.0 NS
*C_UNIT 1.0 PF
*R_UNIT 1.0 KOHM
*L_UNIT 1.0 HENRY

*PORTS

i_A\[31\] I *L 0.000e+00 *S 0.000e+00 0.000e+00 
i_A\[30\] I *L 0.000e+00 *S 0.000e+00 0.000e+00 
i_A\[29\] I *L 0.000e+00 *S 0.000e+00 0.000e+00 
i_A\[28\] I *L 0.000e+00 *S 0.000e+00 0.000e+00 
i_A\[27\] I *L 0.000e+00 *S 0.000e+00 0.000e+00 
i_A\[26\] I *L 0.000e+00 *S 0.000e+00 0.000e+00 
i_A\[25\] I *L 0.000e+00 *S 0.000e+00 0.000e+00 
i_A\[24\] I *L 0.000e+00 *S 0.000e+00 0.000e+00 
i_A\[23\] I *L 0.000e+00 *S 0.000e+00 0.000e+00 
i_A\[22\] I *L 0.000e+00 *S 0.000e+00 0.000e+00 
i_A\[21\] I *L 0.000e+00 *S 0.000e+00 0.000e+00 
i_A\[20\] I *L 0.000e+00 *S 0.000e+00 0.000e+00 
i_A\[19\] I *L 0.000e+00 *S 0.000e+00 0.000e+00 
i_A\[18\] I *L 0.000e+00 *S 0.000e+00 0.000e+00 
i_A\[17\] I *L 0.000e+00 *S 0.000e+00 0.000e+00 
i_A\[16\] I *L 0.000e+00 *S 0.000e+00 0.000e+00 
i_A\[15\] I *L 0.000e+00 *S 0.000e+00 0.000e+00 
i_A\[14\] I *L 0.000e+00 *S 0.000e+00 0.000e+00 
i_A\[13\] I *L 0.000e+00 *S 0.000e+00 0.000e+00 
i_A\[12\] I *L 0.000e+00 *S 0.000e+00 0.000e+00 
i_A\[11\] I *L 0.000e+00 *S 0.000e+00 0.000e+00 
i_A\[10\] I *L 0.000e+00 *S 0.000e+00 0.000e+00 
i_A\[9\] I *L 0.000e+00 *S 0.000e+00 0.000e+00 
i_A\[8\] I *L 0.000e+00 *S 0.000e+00 0.000e+00 
i_A\[7\] I *L 0.000e+00 *S 0.000e+00 0.000e+00 
i_A\[6\] I *L 0.000e+00 *S 0.000e+00 0.000e+00 
i_A\[5\] I *L 0.000e+00 *S 0.000e+00 0.000e+00 
i_A\[4\] I *L 0.000e+00 *S 0.000e+00 0.000e+00 
i_A\[3\] I *L 0.000e+00 *S 0.000e+00 0.000e+00 
i_A\[2\] I *L 0.000e+00 *S 0.000e+00 0.000e+00 
i_A\[1\] I *L 0.000e+00 *S 0.000e+00 0.000e+00 
i_A\[0\] I *L 0.000e+00 *S 0.000e+00 0.000e+00 
i_A_STB I *L 0.000e+00 *S 0.000e+00 0.000e+00 
o_A_ACK O *L 1.035e-02 *S 1.605e-01 1.324e-01 
o_Z\[31\] O *L 1.035e-02 *S 1.237e-01 1.056e-01 
o_Z\[30\] O *L 1.035e-02 *S 1.237e-01 1.056e-01 
o_Z\[29\] O *L 1.035e-02 *S 1.237e-01 1.056e-01 
o_Z\[28\] O *L 1.035e-02 *S 1.237e-01 1.056e-01 
o_Z\[27\] O *L 1.035e-02 *S 1.237e-01 1.056e-01 
o_Z\[26\] O *L 1.035e-02 *S 1.237e-01 1.056e-01 
o_Z\[25\] O *L 1.035e-02 *S 1.237e-01 1.056e-01 
o_Z\[24\] O *L 1.035e-02 *S 1.237e-01 1.056e-01 
o_Z\[23\] O *L 1.035e-02 *S 1.237e-01 1.056e-01 
o_Z\[22\] O *L 1.035e-02 *S 1.237e-01 1.056e-01 
o_Z\[21\] O *L 1.035e-02 *S 1.237e-01 1.056e-01 
o_Z\[20\] O *L 1.035e-02 *S 1.237e-01 1.056e-01 
o_Z\[19\] O *L 1.035e-02 *S 1.237e-01 1.056e-01 
o_Z\[18\] O *L 1.035e-02 *S 1.237e-01 1.056e-01 
o_Z\[17\] O *L 1.035e-02 *S 1.237e-01 1.056e-01 
o_Z\[16\] O *L 1.035e-02 *S 1.237e-01 1.056e-01 
o_Z\[15\] O *L 1.035e-02 *S 1.237e-01 1.056e-01 
o_Z\[14\] O *L 1.035e-02 *S 1.237e-01 1.056e-01 
o_Z\[13\] O *L 1.035e-02 *S 1.237e-01 1.056e-01 
o_Z\[12\] O *L 1.035e-02 *S 1.237e-01 1.056e-01 
o_Z\[11\] O *L 1.035e-02 *S 1.237e-01 1.056e-01 
o_Z\[10\] O *L 1.035e-02 *S 1.237e-01 1.056e-01 
o_Z\[9\] O *L 1.035e-02 *S 1.237e-01 1.056e-01 
o_Z\[8\] O *L 1.035e-02 *S 1.237e-01 1.056e-01 
o_Z\[7\] O *L 1.035e-02 *S 1.237e-01 1.056e-01 
o_Z\[6\] O *L 1.035e-02 *S 1.237e-01 1.056e-01 
o_Z\[5\] O *L 1.035e-02 *S 1.237e-01 1.056e-01 
o_Z\[4\] O *L 1.035e-02 *S 1.237e-01 1.056e-01 
o_Z\[3\] O *L 1.035e-02 *S 1.237e-01 1.056e-01 
o_Z\[2\] O *L 1.035e-02 *S 1.237e-01 1.056e-01 
o_Z\[1\] O *L 1.035e-02 *S 1.237e-01 1.056e-01 
o_Z\[0\] O *L 1.035e-02 *S 1.237e-01 1.056e-01 
o_Z_STB O *L 1.035e-02 *S 1.605e-01 1.324e-01 
i_Z_ACK I *L 0.000e+00 *S 0.000e+00 0.000e+00 
i_CLK I *L 0.000e+00 *S 0.000e+00 0.000e+00 
i_RST I *L 0.000e+00 *S 0.000e+00 0.000e+00 

*R_NET N6 1.623e-01
*DRIVER U175:Y
*CELL nid2_hd
*C2_R1_C1 8.114e-02 4.595e-02 8.114e-02 
*LOADS
*RC U226:A 7.457e-03
*RC U227:A 7.457e-03
*RC U228:A 7.457e-03
*RC U229:A 7.457e-03
*RC U230:A 7.457e-03
*RC U231:A 7.457e-03
*RC U232:A 7.457e-03
*RC U32:AN 7.457e-03
*RC U42:A 7.457e-03
*RC U44:A 7.457e-03
*RC U46:A 7.457e-03
*RC U48:A 7.457e-03
*RC U50:A 7.457e-03
*RC U52:A 7.457e-03
*RC U54:A 7.457e-03
*RC U57:A 7.457e-03
*RC U62:B 7.457e-03
*RC U64:A 7.457e-03
*RC U65:A 7.457e-03
*RC U66:A 7.457e-03
*RC U67:A 7.457e-03
*RC U68:A 7.457e-03
*RC U69:A 7.457e-03
*RC U70:A 7.457e-03
*RC U71:A 7.457e-03
*RC U72:A 7.457e-03
*RC U73:A 7.457e-03
*RC U74:A 7.457e-03
*RC U75:A 7.457e-03
*RC U76:A 7.457e-03
*RC U77:A 7.457e-03
*RC U78:A 7.457e-03
*RC U79:A 7.457e-03
*RC U80:A 7.457e-03
*RC U81:A 7.457e-03
*RC U82:A 7.457e-03
*RC U83:A 7.457e-03
*RC U84:A 7.457e-03
*RC U85:A 7.457e-03
*RC U86:A 7.457e-03
*RC U87:A 7.457e-03
*END

*R_NET i_A\[31\] 4.610e-03
*DRIVER i_A\[31\]
*CELL NULL
*C2_R1_C1 2.305e-03 7.370e-03 2.305e-03 
*LOADS
*RC a_reg_31_:D 3.398e-05
*END

*R_NET i_A\[30\] 4.550e-03
*DRIVER i_A\[30\]
*CELL NULL
*C2_R1_C1 2.275e-03 7.370e-03 2.275e-03 
*LOADS
*RC a_reg_30_:D 3.353e-05
*END

*R_NET i_A\[29\] 4.550e-03
*DRIVER i_A\[29\]
*CELL NULL
*C2_R1_C1 2.275e-03 7.370e-03 2.275e-03 
*LOADS
*RC a_reg_29_:D 3.353e-05
*END

*R_NET i_A\[28\] 4.550e-03
*DRIVER i_A\[28\]
*CELL NULL
*C2_R1_C1 2.275e-03 7.370e-03 2.275e-03 
*LOADS
*RC a_reg_28_:D 3.353e-05
*END

*R_NET i_A\[27\] 4.550e-03
*DRIVER i_A\[27\]
*CELL NULL
*C2_R1_C1 2.275e-03 7.370e-03 2.275e-03 
*LOADS
*RC a_reg_27_:D 3.353e-05
*END

*R_NET i_A\[26\] 4.550e-03
*DRIVER i_A\[26\]
*CELL NULL
*C2_R1_C1 2.275e-03 7.370e-03 2.275e-03 
*LOADS
*RC a_reg_26_:D 3.353e-05
*END

*R_NET i_A\[25\] 4.550e-03
*DRIVER i_A\[25\]
*CELL NULL
*C2_R1_C1 2.275e-03 7.370e-03 2.275e-03 
*LOADS
*RC a_reg_25_:D 3.353e-05
*END

*R_NET i_A\[24\] 4.550e-03
*DRIVER i_A\[24\]
*CELL NULL
*C2_R1_C1 2.275e-03 7.370e-03 2.275e-03 
*LOADS
*RC a_reg_24_:D 3.353e-05
*END

*R_NET i_A\[23\] 4.550e-03
*DRIVER i_A\[23\]
*CELL NULL
*C2_R1_C1 2.275e-03 7.370e-03 2.275e-03 
*LOADS
*RC a_reg_23_:D 3.353e-05
*END

*R_NET i_A\[22\] 4.550e-03
*DRIVER i_A\[22\]
*CELL NULL
*C2_R1_C1 2.275e-03 7.370e-03 2.275e-03 
*LOADS
*RC a_reg_22_:D 3.353e-05
*END

*R_NET i_A\[21\] 4.550e-03
*DRIVER i_A\[21\]
*CELL NULL
*C2_R1_C1 2.275e-03 7.370e-03 2.275e-03 
*LOADS
*RC a_reg_21_:D 3.353e-05
*END

*R_NET i_A\[20\] 4.550e-03
*DRIVER i_A\[20\]
*CELL NULL
*C2_R1_C1 2.275e-03 7.370e-03 2.275e-03 
*LOADS
*RC a_reg_20_:D 3.353e-05
*END

*R_NET i_A\[19\] 4.550e-03
*DRIVER i_A\[19\]
*CELL NULL
*C2_R1_C1 2.275e-03 7.370e-03 2.275e-03 
*LOADS
*RC a_reg_19_:D 3.353e-05
*END

*R_NET i_A\[18\] 4.550e-03
*DRIVER i_A\[18\]
*CELL NULL
*C2_R1_C1 2.275e-03 7.370e-03 2.275e-03 
*LOADS
*RC a_reg_18_:D 3.353e-05
*END

*R_NET i_A\[17\] 4.550e-03
*DRIVER i_A\[17\]
*CELL NULL
*C2_R1_C1 2.275e-03 7.370e-03 2.275e-03 
*LOADS
*RC a_reg_17_:D 3.353e-05
*END

*R_NET i_A\[16\] 4.550e-03
*DRIVER i_A\[16\]
*CELL NULL
*C2_R1_C1 2.275e-03 7.370e-03 2.275e-03 
*LOADS
*RC a_reg_16_:D 3.353e-05
*END

*R_NET i_A\[15\] 4.550e-03
*DRIVER i_A\[15\]
*CELL NULL
*C2_R1_C1 2.275e-03 7.370e-03 2.275e-03 
*LOADS
*RC a_reg_15_:D 3.353e-05
*END

*R_NET i_A\[14\] 4.550e-03
*DRIVER i_A\[14\]
*CELL NULL
*C2_R1_C1 2.275e-03 7.370e-03 2.275e-03 
*LOADS
*RC a_reg_14_:D 3.353e-05
*END

*R_NET i_A\[13\] 4.550e-03
*DRIVER i_A\[13\]
*CELL NULL
*C2_R1_C1 2.275e-03 7.370e-03 2.275e-03 
*LOADS
*RC a_reg_13_:D 3.353e-05
*END

*R_NET i_A\[12\] 4.550e-03
*DRIVER i_A\[12\]
*CELL NULL
*C2_R1_C1 2.275e-03 7.370e-03 2.275e-03 
*LOADS
*RC a_reg_12_:D 3.353e-05
*END

*R_NET i_A\[11\] 4.550e-03
*DRIVER i_A\[11\]
*CELL NULL
*C2_R1_C1 2.275e-03 7.370e-03 2.275e-03 
*LOADS
*RC a_reg_11_:D 3.353e-05
*END

*R_NET i_A\[10\] 4.550e-03
*DRIVER i_A\[10\]
*CELL NULL
*C2_R1_C1 2.275e-03 7.370e-03 2.275e-03 
*LOADS
*RC a_reg_10_:D 3.353e-05
*END

*R_NET i_A\[9\] 4.550e-03
*DRIVER i_A\[9\]
*CELL NULL
*C2_R1_C1 2.275e-03 7.370e-03 2.275e-03 
*LOADS
*RC a_reg_9_:D 3.353e-05
*END

*R_NET i_A\[8\] 4.550e-03
*DRIVER i_A\[8\]
*CELL NULL
*C2_R1_C1 2.275e-03 7.370e-03 2.275e-03 
*LOADS
*RC a_reg_8_:D 3.353e-05
*END

*R_NET i_A\[7\] 4.550e-03
*DRIVER i_A\[7\]
*CELL NULL
*C2_R1_C1 2.275e-03 7.370e-03 2.275e-03 
*LOADS
*RC a_reg_7_:D 3.353e-05
*END

*R_NET i_A\[6\] 4.550e-03
*DRIVER i_A\[6\]
*CELL NULL
*C2_R1_C1 2.275e-03 7.370e-03 2.275e-03 
*LOADS
*RC a_reg_6_:D 3.353e-05
*END

*R_NET i_A\[5\] 4.550e-03
*DRIVER i_A\[5\]
*CELL NULL
*C2_R1_C1 2.275e-03 7.370e-03 2.275e-03 
*LOADS
*RC a_reg_5_:D 3.353e-05
*END

*R_NET i_A\[4\] 4.550e-03
*DRIVER i_A\[4\]
*CELL NULL
*C2_R1_C1 2.275e-03 7.370e-03 2.275e-03 
*LOADS
*RC a_reg_4_:D 3.353e-05
*END

*R_NET i_A\[3\] 4.550e-03
*DRIVER i_A\[3\]
*CELL NULL
*C2_R1_C1 2.275e-03 7.370e-03 2.275e-03 
*LOADS
*RC a_reg_3_:D 3.353e-05
*END

*R_NET i_A\[2\] 4.550e-03
*DRIVER i_A\[2\]
*CELL NULL
*C2_R1_C1 2.275e-03 7.370e-03 2.275e-03 
*LOADS
*RC a_reg_2_:D 3.353e-05
*END

*R_NET i_A\[1\] 4.550e-03
*DRIVER i_A\[1\]
*CELL NULL
*C2_R1_C1 2.275e-03 7.370e-03 2.275e-03 
*LOADS
*RC a_reg_1_:D 3.353e-05
*END

*R_NET i_A\[0\] 4.550e-03
*DRIVER i_A\[0\]
*CELL NULL
*C2_R1_C1 2.275e-03 7.370e-03 2.275e-03 
*LOADS
*RC a_reg_0_:D 3.353e-05
*END

*R_NET i_A_STB 5.190e-03
*DRIVER i_A_STB
*CELL NULL
*C2_R1_C1 2.595e-03 7.370e-03 2.595e-03 
*LOADS
*RC U424:B 3.825e-05
*END

*R_NET o_A_ACK 1.792e-02
*DRIVER o_A_ACK_reg:Q
*CELL fds2eqd1_hd
*C2_R1_C1 8.960e-03 9.100e-03 8.960e-03 
*LOADS
*RC U424:A 1.631e-04
*RC o_A_ACK 1.631e-04
*END

*R_NET o_Z\[31\] 1.350e-02
*DRIVER o_Z_reg_31_:Q
*CELL fds2eqd1_hd
*C2_R1_C1 6.750e-03 7.370e-03 6.750e-03 
*LOADS
*RC o_Z\[31\] 9.950e-05
*END

*R_NET o_Z\[30\] 1.350e-02
*DRIVER o_Z_reg_30_:Q
*CELL fds2eqd1_hd
*C2_R1_C1 6.750e-03 7.370e-03 6.750e-03 
*LOADS
*RC o_Z\[30\] 9.950e-05
*END

*R_NET o_Z\[29\] 1.350e-02
*DRIVER o_Z_reg_29_:Q
*CELL fds2eqd1_hd
*C2_R1_C1 6.750e-03 7.370e-03 6.750e-03 
*LOADS
*RC o_Z\[29\] 9.950e-05
*END

*R_NET o_Z\[28\] 1.350e-02
*DRIVER o_Z_reg_28_:Q
*CELL fds2eqd1_hd
*C2_R1_C1 6.750e-03 7.370e-03 6.750e-03 
*LOADS
*RC o_Z\[28\] 9.950e-05
*END

*R_NET o_Z\[27\] 1.350e-02
*DRIVER o_Z_reg_27_:Q
*CELL fds2eqd1_hd
*C2_R1_C1 6.750e-03 7.370e-03 6.750e-03 
*LOADS
*RC o_Z\[27\] 9.950e-05
*END

*R_NET o_Z\[26\] 1.350e-02
*DRIVER o_Z_reg_26_:Q
*CELL fds2eqd1_hd
*C2_R1_C1 6.750e-03 7.370e-03 6.750e-03 
*LOADS
*RC o_Z\[26\] 9.950e-05
*END

*R_NET o_Z\[25\] 1.350e-02
*DRIVER o_Z_reg_25_:Q
*CELL fds2eqd1_hd
*C2_R1_C1 6.750e-03 7.370e-03 6.750e-03 
*LOADS
*RC o_Z\[25\] 9.950e-05
*END

*R_NET o_Z\[24\] 1.350e-02
*DRIVER o_Z_reg_24_:Q
*CELL fds2eqd1_hd
*C2_R1_C1 6.750e-03 7.370e-03 6.750e-03 
*LOADS
*RC o_Z\[24\] 9.950e-05
*END

*R_NET o_Z\[23\] 1.350e-02
*DRIVER o_Z_reg_23_:Q
*CELL fds2eqd1_hd
*C2_R1_C1 6.750e-03 7.370e-03 6.750e-03 
*LOADS
*RC o_Z\[23\] 9.950e-05
*END

*R_NET o_Z\[22\] 1.350e-02
*DRIVER o_Z_reg_22_:Q
*CELL fds2eqd1_hd
*C2_R1_C1 6.750e-03 7.370e-03 6.750e-03 
*LOADS
*RC o_Z\[22\] 9.950e-05
*END

*R_NET o_Z\[21\] 1.350e-02
*DRIVER o_Z_reg_21_:Q
*CELL fds2eqd1_hd
*C2_R1_C1 6.750e-03 7.370e-03 6.750e-03 
*LOADS
*RC o_Z\[21\] 9.950e-05
*END

*R_NET o_Z\[20\] 1.350e-02
*DRIVER o_Z_reg_20_:Q
*CELL fds2eqd1_hd
*C2_R1_C1 6.750e-03 7.370e-03 6.750e-03 
*LOADS
*RC o_Z\[20\] 9.950e-05
*END

*R_NET o_Z\[19\] 1.350e-02
*DRIVER o_Z_reg_19_:Q
*CELL fds2eqd1_hd
*C2_R1_C1 6.750e-03 7.370e-03 6.750e-03 
*LOADS
*RC o_Z\[19\] 9.950e-05
*END

*R_NET o_Z\[18\] 1.350e-02
*DRIVER o_Z_reg_18_:Q
*CELL fds2eqd1_hd
*C2_R1_C1 6.750e-03 7.370e-03 6.750e-03 
*LOADS
*RC o_Z\[18\] 9.950e-05
*END

*R_NET o_Z\[17\] 1.350e-02
*DRIVER o_Z_reg_17_:Q
*CELL fds2eqd1_hd
*C2_R1_C1 6.750e-03 7.370e-03 6.750e-03 
*LOADS
*RC o_Z\[17\] 9.950e-05
*END

*R_NET o_Z\[16\] 1.350e-02
*DRIVER o_Z_reg_16_:Q
*CELL fds2eqd1_hd
*C2_R1_C1 6.750e-03 7.370e-03 6.750e-03 
*LOADS
*RC o_Z\[16\] 9.950e-05
*END

*R_NET o_Z\[15\] 1.350e-02
*DRIVER o_Z_reg_15_:Q
*CELL fds2eqd1_hd
*C2_R1_C1 6.750e-03 7.370e-03 6.750e-03 
*LOADS
*RC o_Z\[15\] 9.950e-05
*END

*R_NET o_Z\[14\] 1.350e-02
*DRIVER o_Z_reg_14_:Q
*CELL fds2eqd1_hd
*C2_R1_C1 6.750e-03 7.370e-03 6.750e-03 
*LOADS
*RC o_Z\[14\] 9.950e-05
*END

*R_NET o_Z\[13\] 1.350e-02
*DRIVER o_Z_reg_13_:Q
*CELL fds2eqd1_hd
*C2_R1_C1 6.750e-03 7.370e-03 6.750e-03 
*LOADS
*RC o_Z\[13\] 9.950e-05
*END

*R_NET o_Z\[12\] 1.350e-02
*DRIVER o_Z_reg_12_:Q
*CELL fds2eqd1_hd
*C2_R1_C1 6.750e-03 7.370e-03 6.750e-03 
*LOADS
*RC o_Z\[12\] 9.950e-05
*END

*R_NET o_Z\[11\] 1.350e-02
*DRIVER o_Z_reg_11_:Q
*CELL fds2eqd1_hd
*C2_R1_C1 6.750e-03 7.370e-03 6.750e-03 
*LOADS
*RC o_Z\[11\] 9.950e-05
*END

*R_NET o_Z\[10\] 1.350e-02
*DRIVER o_Z_reg_10_:Q
*CELL fds2eqd1_hd
*C2_R1_C1 6.750e-03 7.370e-03 6.750e-03 
*LOADS
*RC o_Z\[10\] 9.950e-05
*END

*R_NET o_Z\[9\] 1.350e-02
*DRIVER o_Z_reg_9_:Q
*CELL fds2eqd1_hd
*C2_R1_C1 6.750e-03 7.370e-03 6.750e-03 
*LOADS
*RC o_Z\[9\] 9.950e-05
*END

*R_NET o_Z\[8\] 1.350e-02
*DRIVER o_Z_reg_8_:Q
*CELL fds2eqd1_hd
*C2_R1_C1 6.750e-03 7.370e-03 6.750e-03 
*LOADS
*RC o_Z\[8\] 9.950e-05
*END

*R_NET o_Z\[7\] 1.350e-02
*DRIVER o_Z_reg_7_:Q
*CELL fds2eqd1_hd
*C2_R1_C1 6.750e-03 7.370e-03 6.750e-03 
*LOADS
*RC o_Z\[7\] 9.950e-05
*END

*R_NET o_Z\[6\] 1.350e-02
*DRIVER o_Z_reg_6_:Q
*CELL fds2eqd1_hd
*C2_R1_C1 6.750e-03 7.370e-03 6.750e-03 
*LOADS
*RC o_Z\[6\] 9.950e-05
*END

*R_NET o_Z\[5\] 1.350e-02
*DRIVER o_Z_reg_5_:Q
*CELL fds2eqd1_hd
*C2_R1_C1 6.750e-03 7.370e-03 6.750e-03 
*LOADS
*RC o_Z\[5\] 9.950e-05
*END

*R_NET o_Z\[4\] 1.350e-02
*DRIVER o_Z_reg_4_:Q
*CELL fds2eqd1_hd
*C2_R1_C1 6.750e-03 7.370e-03 6.750e-03 
*LOADS
*RC o_Z\[4\] 9.950e-05
*END

*R_NET o_Z\[3\] 1.350e-02
*DRIVER o_Z_reg_3_:Q
*CELL fds2eqd1_hd
*C2_R1_C1 6.750e-03 7.370e-03 6.750e-03 
*LOADS
*RC o_Z\[3\] 9.950e-05
*END

*R_NET o_Z\[2\] 1.350e-02
*DRIVER o_Z_reg_2_:Q
*CELL fds2eqd1_hd
*C2_R1_C1 6.750e-03 7.370e-03 6.750e-03 
*LOADS
*RC o_Z\[2\] 9.950e-05
*END

*R_NET o_Z\[1\] 1.350e-02
*DRIVER o_Z_reg_1_:Q
*CELL fds2eqd1_hd
*C2_R1_C1 6.750e-03 7.370e-03 6.750e-03 
*LOADS
*RC o_Z\[1\] 9.950e-05
*END

*R_NET o_Z\[0\] 1.350e-02
*DRIVER o_Z_reg_0_:Q
*CELL fds2eqd1_hd
*C2_R1_C1 6.750e-03 7.370e-03 6.750e-03 
*LOADS
*RC o_Z\[0\] 9.950e-05
*END

*R_NET o_Z_STB 1.792e-02
*DRIVER o_Z_STB_reg:Q
*CELL fds2eqd1_hd
*C2_R1_C1 8.960e-03 9.100e-03 8.960e-03 
*LOADS
*RC U433:A 1.631e-04
*RC o_Z_STB 1.631e-04
*END

*R_NET i_Z_ACK 5.190e-03
*DRIVER i_Z_ACK
*CELL NULL
*C2_R1_C1 2.595e-03 7.370e-03 2.595e-03 
*LOADS
*RC U433:B 3.825e-05
*END

*R_NET i_CLK 1.869e+00
*DRIVER i_CLK
*CELL NULL
*C2_R1_C1 9.344e-01 0.000e+00 9.344e-01 
*LOADS
*RC a_reg_31_:CK 0.000e+00
*RC value_reg_31_:CK 0.000e+00
*RC value_reg_30_:CK 0.000e+00
*RC z_m_reg_0_:CK 0.000e+00
*RC z_m_reg_1_:CK 0.000e+00
*RC z_m_reg_2_:CK 0.000e+00
*RC z_m_reg_3_:CK 0.000e+00
*RC z_m_reg_4_:CK 0.000e+00
*RC z_m_reg_5_:CK 0.000e+00
*RC z_m_reg_6_:CK 0.000e+00
*RC z_m_reg_7_:CK 0.000e+00
*RC z_m_reg_8_:CK 0.000e+00
*RC z_m_reg_9_:CK 0.000e+00
*RC z_m_reg_10_:CK 0.000e+00
*RC z_m_reg_11_:CK 0.000e+00
*RC z_m_reg_12_:CK 0.000e+00
*RC z_m_reg_13_:CK 0.000e+00
*RC z_m_reg_14_:CK 0.000e+00
*RC z_m_reg_15_:CK 0.000e+00
*RC z_m_reg_16_:CK 0.000e+00
*RC z_m_reg_17_:CK 0.000e+00
*RC z_m_reg_18_:CK 0.000e+00
*RC z_m_reg_19_:CK 0.000e+00
*RC z_m_reg_20_:CK 0.000e+00
*RC z_m_reg_21_:CK 0.000e+00
*RC z_m_reg_22_:CK 0.000e+00
*RC z_m_reg_23_:CK 0.000e+00
*RC value_reg_29_:CK 0.000e+00
*RC state_reg_1_:CK 0.000e+00
*RC value_reg_0_:CK 0.000e+00
*RC value_reg_1_:CK 0.000e+00
*RC value_reg_2_:CK 0.000e+00
*RC value_reg_3_:CK 0.000e+00
*RC value_reg_4_:CK 0.000e+00
*RC value_reg_5_:CK 0.000e+00
*RC value_reg_6_:CK 0.000e+00
*RC value_reg_7_:CK 0.000e+00
*RC value_reg_8_:CK 0.000e+00
*RC value_reg_9_:CK 0.000e+00
*RC value_reg_10_:CK 0.000e+00
*RC value_reg_11_:CK 0.000e+00
*RC value_reg_12_:CK 0.000e+00
*RC value_reg_13_:CK 0.000e+00
*RC value_reg_14_:CK 0.000e+00
*RC value_reg_15_:CK 0.000e+00
*RC value_reg_16_:CK 0.000e+00
*RC value_reg_17_:CK 0.000e+00
*RC value_reg_18_:CK 0.000e+00
*RC value_reg_19_:CK 0.000e+00
*RC value_reg_20_:CK 0.000e+00
*RC value_reg_21_:CK 0.000e+00
*RC value_reg_22_:CK 0.000e+00
*RC value_reg_23_:CK 0.000e+00
*RC value_reg_24_:CK 0.000e+00
*RC value_reg_25_:CK 0.000e+00
*RC value_reg_26_:CK 0.000e+00
*RC value_reg_27_:CK 0.000e+00
*RC value_reg_28_:CK 0.000e+00
*RC z_e_reg_0_:CK 0.000e+00
*RC z_e_reg_1_:CK 0.000e+00
*RC z_e_reg_2_:CK 0.000e+00
*RC z_e_reg_3_:CK 0.000e+00
*RC z_e_reg_4_:CK 0.000e+00
*RC z_e_reg_5_:CK 0.000e+00
*RC z_e_reg_6_:CK 0.000e+00
*RC z_e_reg_7_:CK 0.000e+00
*RC state_reg_0_:CK 0.000e+00
*RC state_reg_2_:CK 0.000e+00
*RC z_s_reg:CK 0.000e+00
*RC a_reg_0_:CK 0.000e+00
*RC a_reg_1_:CK 0.000e+00
*RC a_reg_2_:CK 0.000e+00
*RC a_reg_3_:CK 0.000e+00
*RC a_reg_4_:CK 0.000e+00
*RC a_reg_5_:CK 0.000e+00
*RC a_reg_6_:CK 0.000e+00
*RC a_reg_7_:CK 0.000e+00
*RC a_reg_8_:CK 0.000e+00
*RC a_reg_9_:CK 0.000e+00
*RC a_reg_10_:CK 0.000e+00
*RC a_reg_11_:CK 0.000e+00
*RC a_reg_12_:CK 0.000e+00
*RC a_reg_13_:CK 0.000e+00
*RC a_reg_14_:CK 0.000e+00
*RC a_reg_15_:CK 0.000e+00
*RC a_reg_16_:CK 0.000e+00
*RC a_reg_17_:CK 0.000e+00
*RC a_reg_18_:CK 0.000e+00
*RC a_reg_19_:CK 0.000e+00
*RC a_reg_20_:CK 0.000e+00
*RC a_reg_21_:CK 0.000e+00
*RC a_reg_22_:CK 0.000e+00
*RC a_reg_23_:CK 0.000e+00
*RC a_reg_24_:CK 0.000e+00
*RC a_reg_25_:CK 0.000e+00
*RC a_reg_26_:CK 0.000e+00
*RC a_reg_27_:CK 0.000e+00
*RC a_reg_28_:CK 0.000e+00
*RC a_reg_29_:CK 0.000e+00
*RC a_reg_30_:CK 0.000e+00
*RC z_reg_30_:CK 0.000e+00
*RC z_reg_29_:CK 0.000e+00
*RC z_r_reg_0_:CK 0.000e+00
*RC z_r_reg_1_:CK 0.000e+00
*RC z_r_reg_2_:CK 0.000e+00
*RC z_r_reg_3_:CK 0.000e+00
*RC z_r_reg_4_:CK 0.000e+00
*RC z_r_reg_5_:CK 0.000e+00
*RC z_r_reg_6_:CK 0.000e+00
*RC z_r_reg_7_:CK 0.000e+00
*RC z_reg_28_:CK 0.000e+00
*RC guard_reg:CK 0.000e+00
*RC round_bit_reg:CK 0.000e+00
*RC sticky_reg:CK 0.000e+00
*RC o_Z_STB_reg:CK 0.000e+00
*RC z_reg_27_:CK 0.000e+00
*RC z_reg_26_:CK 0.000e+00
*RC z_reg_0_:CK 0.000e+00
*RC z_reg_1_:CK 0.000e+00
*RC z_reg_2_:CK 0.000e+00
*RC z_reg_3_:CK 0.000e+00
*RC z_reg_4_:CK 0.000e+00
*RC z_reg_5_:CK 0.000e+00
*RC z_reg_6_:CK 0.000e+00
*RC z_reg_7_:CK 0.000e+00
*RC z_reg_8_:CK 0.000e+00
*RC z_reg_9_:CK 0.000e+00
*RC z_reg_10_:CK 0.000e+00
*RC z_reg_11_:CK 0.000e+00
*RC z_reg_12_:CK 0.000e+00
*RC z_reg_13_:CK 0.000e+00
*RC z_reg_14_:CK 0.000e+00
*RC z_reg_15_:CK 0.000e+00
*RC z_reg_16_:CK 0.000e+00
*RC z_reg_17_:CK 0.000e+00
*RC z_reg_18_:CK 0.000e+00
*RC z_reg_19_:CK 0.000e+00
*RC z_reg_20_:CK 0.000e+00
*RC z_reg_21_:CK 0.000e+00
*RC z_reg_22_:CK 0.000e+00
*RC z_reg_23_:CK 0.000e+00
*RC z_reg_24_:CK 0.000e+00
*RC z_reg_25_:CK 0.000e+00
*RC z_reg_31_:CK 0.000e+00
*RC o_Z_reg_0_:CK 0.000e+00
*RC o_Z_reg_1_:CK 0.000e+00
*RC o_Z_reg_2_:CK 0.000e+00
*RC o_Z_reg_3_:CK 0.000e+00
*RC o_Z_reg_4_:CK 0.000e+00
*RC o_Z_reg_5_:CK 0.000e+00
*RC o_Z_reg_6_:CK 0.000e+00
*RC o_Z_reg_7_:CK 0.000e+00
*RC o_Z_reg_8_:CK 0.000e+00
*RC o_Z_reg_9_:CK 0.000e+00
*RC o_Z_reg_10_:CK 0.000e+00
*RC o_Z_reg_11_:CK 0.000e+00
*RC o_Z_reg_12_:CK 0.000e+00
*RC o_Z_reg_13_:CK 0.000e+00
*RC o_Z_reg_14_:CK 0.000e+00
*RC o_Z_reg_15_:CK 0.000e+00
*RC o_Z_reg_16_:CK 0.000e+00
*RC o_Z_reg_17_:CK 0.000e+00
*RC o_Z_reg_18_:CK 0.000e+00
*RC o_Z_reg_19_:CK 0.000e+00
*RC o_Z_reg_20_:CK 0.000e+00
*RC o_Z_reg_21_:CK 0.000e+00
*RC o_Z_reg_22_:CK 0.000e+00
*RC o_Z_reg_23_:CK 0.000e+00
*RC o_Z_reg_24_:CK 0.000e+00
*RC o_Z_reg_25_:CK 0.000e+00
*RC o_Z_reg_26_:CK 0.000e+00
*RC o_Z_reg_27_:CK 0.000e+00
*RC o_Z_reg_28_:CK 0.000e+00
*RC o_Z_reg_29_:CK 0.000e+00
*RC o_Z_reg_30_:CK 0.000e+00
*RC o_Z_reg_31_:CK 0.000e+00
*RC o_A_ACK_reg:CK 0.000e+00
*END

*R_NET state\[2\] 2.065e-02
*DRIVER state_reg_2_:Q
*CELL fds2eqd1_hd
*C2_R1_C1 1.032e-02 1.094e-02 1.032e-02 
*LOADS
*RC U169:A 2.259e-04
*RC U173:A 2.259e-04
*RC U180:A 2.259e-04
*RC U223:A 2.259e-04
*END

*R_NET state\[1\] 2.128e-02
*DRIVER state_reg_1_:Q
*CELL fds2eqd1_hd
*C2_R1_C1 1.064e-02 1.094e-02 1.064e-02 
*LOADS
*RC U168:B 2.328e-04
*RC U179:A 2.328e-04
*RC U223:B 2.328e-04
*RC U237:B 2.328e-04
*END

*R_NET state\[0\] 4.267e-02
*DRIVER state_reg_0_:Q
*CELL fds2eqd1_hd
*C2_R1_C1 2.134e-02 1.094e-02 2.134e-02 
*LOADS
*RC U178:A 4.668e-04
*RC U425:B 4.668e-04
*RC U426:B 4.668e-04
*RC U429:B 4.668e-04
*END

*R_NET a\[31\] 1.319e-01
*DRIVER a_reg_31_:Q
*CELL fds2eqd2_hd
*C2_R1_C1 6.595e-02 3.854e-02 6.595e-02 
*LOADS
*RC U121:B 5.083e-03
*RC U181:A 5.083e-03
*RC U182:A 5.083e-03
*RC U184:A 5.083e-03
*RC U185:A 5.083e-03
*RC U186:A 5.083e-03
*RC U187:A 5.083e-03
*RC U188:A 5.083e-03
*RC U189:A 5.083e-03
*RC U190:A 5.083e-03
*RC U191:A 5.083e-03
*RC U192:A 5.083e-03
*RC U193:A 5.083e-03
*RC U194:A 5.083e-03
*RC U195:A 5.083e-03
*RC U196:A 5.083e-03
*RC U197:A 5.083e-03
*RC U198:A 5.083e-03
*RC U199:A 5.083e-03
*RC U200:A 5.083e-03
*RC U201:A 5.083e-03
*RC U202:A 5.083e-03
*RC U203:A 5.083e-03
*RC U204:A 5.083e-03
*RC U205:A 5.083e-03
*RC U206:A 5.083e-03
*RC U207:A 5.083e-03
*RC U208:A 5.083e-03
*RC U209:A 5.083e-03
*RC U210:A 5.083e-03
*RC U211:A 5.083e-03
*RC U212:A 5.083e-03
*RC U241:A 5.083e-03
*RC sub_x_1/U100:B 5.083e-03
*END

*R_NET a\[30\] 1.454e-02
*DRIVER a_reg_30_:Q
*CELL fds2eqd1_hd
*C2_R1_C1 7.270e-03 9.460e-03 7.270e-03 
*LOADS
*RC U121:A 1.375e-04
*RC U181:C 1.375e-04
*RC sub_x_1/U98:A 1.375e-04
*END

*R_NET a\[29\] 1.454e-02
*DRIVER a_reg_29_:Q
*CELL fds2eqd1_hd
*C2_R1_C1 7.270e-03 9.460e-03 7.270e-03 
*LOADS
*RC U120:A 1.375e-04
*RC U182:C 1.375e-04
*RC sub_x_1/U97:A 1.375e-04
*END

*R_NET a\[28\] 1.454e-02
*DRIVER a_reg_28_:Q
*CELL fds2eqd1_hd
*C2_R1_C1 7.270e-03 9.460e-03 7.270e-03 
*LOADS
*RC U119:A 1.375e-04
*RC U212:C 1.375e-04
*RC sub_x_1/U96:A 1.375e-04
*END

*R_NET a\[27\] 1.454e-02
*DRIVER a_reg_27_:Q
*CELL fds2eqd1_hd
*C2_R1_C1 7.270e-03 9.460e-03 7.270e-03 
*LOADS
*RC U125:A 1.375e-04
*RC U211:C 1.375e-04
*RC sub_x_1/U95:A 1.375e-04
*END

*R_NET a\[26\] 1.454e-02
*DRIVER a_reg_26_:Q
*CELL fds2eqd1_hd
*C2_R1_C1 7.270e-03 9.460e-03 7.270e-03 
*LOADS
*RC U124:A 1.375e-04
*RC U210:C 1.375e-04
*RC sub_x_1/U94:A 1.375e-04
*END

*R_NET a\[25\] 1.454e-02
*DRIVER a_reg_25_:Q
*CELL fds2eqd1_hd
*C2_R1_C1 7.270e-03 9.460e-03 7.270e-03 
*LOADS
*RC U123:A 1.375e-04
*RC U209:C 1.375e-04
*RC sub_x_1/U93:A 1.375e-04
*END

*R_NET a\[24\] 1.454e-02
*DRIVER a_reg_24_:Q
*CELL fds2eqd1_hd
*C2_R1_C1 7.270e-03 9.460e-03 7.270e-03 
*LOADS
*RC U122:A 1.375e-04
*RC U208:C 1.375e-04
*RC sub_x_1/U92:A 1.375e-04
*END

*R_NET a\[23\] 1.454e-02
*DRIVER a_reg_23_:Q
*CELL fds2eqd1_hd
*C2_R1_C1 7.270e-03 9.460e-03 7.270e-03 
*LOADS
*RC U129:A 1.375e-04
*RC U207:C 1.375e-04
*RC sub_x_1/U91:A 1.375e-04
*END

*R_NET a\[22\] 1.454e-02
*DRIVER a_reg_22_:Q
*CELL fds2eqd1_hd
*C2_R1_C1 7.270e-03 9.460e-03 7.270e-03 
*LOADS
*RC U128:A 1.375e-04
*RC U206:C 1.375e-04
*RC sub_x_1/U90:A 1.375e-04
*END

*R_NET a\[21\] 1.454e-02
*DRIVER a_reg_21_:Q
*CELL fds2eqd1_hd
*C2_R1_C1 7.270e-03 9.460e-03 7.270e-03 
*LOADS
*RC U127:A 1.375e-04
*RC U205:C 1.375e-04
*RC sub_x_1/U89:A 1.375e-04
*END

*R_NET a\[20\] 1.454e-02
*DRIVER a_reg_20_:Q
*CELL fds2eqd1_hd
*C2_R1_C1 7.270e-03 9.460e-03 7.270e-03 
*LOADS
*RC U126:A 1.375e-04
*RC U204:C 1.375e-04
*RC sub_x_1/U88:A 1.375e-04
*END

*R_NET a\[19\] 1.454e-02
*DRIVER a_reg_19_:Q
*CELL fds2eqd1_hd
*C2_R1_C1 7.270e-03 9.460e-03 7.270e-03 
*LOADS
*RC U137:A 1.375e-04
*RC U203:C 1.375e-04
*RC sub_x_1/U87:A 1.375e-04
*END

*R_NET a\[18\] 1.454e-02
*DRIVER a_reg_18_:Q
*CELL fds2eqd1_hd
*C2_R1_C1 7.270e-03 9.460e-03 7.270e-03 
*LOADS
*RC U136:A 1.375e-04
*RC U202:C 1.375e-04
*RC sub_x_1/U86:A 1.375e-04
*END

*R_NET a\[17\] 1.454e-02
*DRIVER a_reg_17_:Q
*CELL fds2eqd1_hd
*C2_R1_C1 7.270e-03 9.460e-03 7.270e-03 
*LOADS
*RC U135:A 1.375e-04
*RC U201:C 1.375e-04
*RC sub_x_1/U85:A 1.375e-04
*END

*R_NET a\[16\] 1.454e-02
*DRIVER a_reg_16_:Q
*CELL fds2eqd1_hd
*C2_R1_C1 7.270e-03 9.460e-03 7.270e-03 
*LOADS
*RC U134:A 1.375e-04
*RC U200:C 1.375e-04
*RC sub_x_1/U84:A 1.375e-04
*END

*R_NET a\[15\] 1.454e-02
*DRIVER a_reg_15_:Q
*CELL fds2eqd1_hd
*C2_R1_C1 7.270e-03 9.460e-03 7.270e-03 
*LOADS
*RC U145:A 1.375e-04
*RC U199:C 1.375e-04
*RC sub_x_1/U83:A 1.375e-04
*END

*R_NET a\[14\] 1.454e-02
*DRIVER a_reg_14_:Q
*CELL fds2eqd1_hd
*C2_R1_C1 7.270e-03 9.460e-03 7.270e-03 
*LOADS
*RC U144:A 1.375e-04
*RC U198:C 1.375e-04
*RC sub_x_1/U82:A 1.375e-04
*END

*R_NET a\[13\] 1.454e-02
*DRIVER a_reg_13_:Q
*CELL fds2eqd1_hd
*C2_R1_C1 7.270e-03 9.460e-03 7.270e-03 
*LOADS
*RC U143:A 1.375e-04
*RC U197:C 1.375e-04
*RC sub_x_1/U81:A 1.375e-04
*END

*R_NET a\[12\] 1.454e-02
*DRIVER a_reg_12_:Q
*CELL fds2eqd1_hd
*C2_R1_C1 7.270e-03 9.460e-03 7.270e-03 
*LOADS
*RC U142:A 1.375e-04
*RC U196:C 1.375e-04
*RC sub_x_1/U80:A 1.375e-04
*END

*R_NET a\[11\] 1.454e-02
*DRIVER a_reg_11_:Q
*CELL fds2eqd1_hd
*C2_R1_C1 7.270e-03 9.460e-03 7.270e-03 
*LOADS
*RC U153:A 1.375e-04
*RC U195:C 1.375e-04
*RC sub_x_1/U79:A 1.375e-04
*END

*R_NET a\[10\] 1.454e-02
*DRIVER a_reg_10_:Q
*CELL fds2eqd1_hd
*C2_R1_C1 7.270e-03 9.460e-03 7.270e-03 
*LOADS
*RC U152:A 1.375e-04
*RC U194:C 1.375e-04
*RC sub_x_1/U78:A 1.375e-04
*END

*R_NET a\[9\] 1.454e-02
*DRIVER a_reg_9_:Q
*CELL fds2eqd1_hd
*C2_R1_C1 7.270e-03 9.460e-03 7.270e-03 
*LOADS
*RC U151:A 1.375e-04
*RC U193:C 1.375e-04
*RC sub_x_1/U77:A 1.375e-04
*END

*R_NET a\[8\] 1.454e-02
*DRIVER a_reg_8_:Q
*CELL fds2eqd1_hd
*C2_R1_C1 7.270e-03 9.460e-03 7.270e-03 
*LOADS
*RC U150:A 1.375e-04
*RC U192:C 1.375e-04
*RC sub_x_1/U76:A 1.375e-04
*END

*R_NET a\[7\] 1.454e-02
*DRIVER a_reg_7_:Q
*CELL fds2eqd1_hd
*C2_R1_C1 7.270e-03 9.460e-03 7.270e-03 
*LOADS
*RC U115:A 1.375e-04
*RC U191:C 1.375e-04
*RC sub_x_1/U75:A 1.375e-04
*END

*R_NET a\[6\] 1.454e-02
*DRIVER a_reg_6_:Q
*CELL fds2eqd1_hd
*C2_R1_C1 7.270e-03 9.460e-03 7.270e-03 
*LOADS
*RC U114:A 1.375e-04
*RC U190:C 1.375e-04
*RC sub_x_1/U74:A 1.375e-04
*END

*R_NET a\[5\] 1.454e-02
*DRIVER a_reg_5_:Q
*CELL fds2eqd1_hd
*C2_R1_C1 7.270e-03 9.460e-03 7.270e-03 
*LOADS
*RC U113:A 1.375e-04
*RC U189:C 1.375e-04
*RC sub_x_1/U73:A 1.375e-04
*END

*R_NET a\[4\] 1.454e-02
*DRIVER a_reg_4_:Q
*CELL fds2eqd1_hd
*C2_R1_C1 7.270e-03 9.460e-03 7.270e-03 
*LOADS
*RC U112:A 1.375e-04
*RC U188:C 1.375e-04
*RC sub_x_1/U72:A 1.375e-04
*END

*R_NET a\[3\] 1.454e-02
*DRIVER a_reg_3_:Q
*CELL fds2eqd1_hd
*C2_R1_C1 7.270e-03 9.460e-03 7.270e-03 
*LOADS
*RC U172:A 1.375e-04
*RC U187:C 1.375e-04
*RC sub_x_1/U71:A 1.375e-04
*END

*R_NET a\[2\] 1.454e-02
*DRIVER a_reg_2_:Q
*CELL fds2eqd1_hd
*C2_R1_C1 7.270e-03 9.460e-03 7.270e-03 
*LOADS
*RC U171:A 1.375e-04
*RC U186:C 1.375e-04
*RC sub_x_1/U70:A 1.375e-04
*END

*R_NET a\[1\] 1.454e-02
*DRIVER a_reg_1_:Q
*CELL fds2eqd1_hd
*C2_R1_C1 7.270e-03 9.460e-03 7.270e-03 
*LOADS
*RC U170:A 1.375e-04
*RC U185:C 1.375e-04
*RC sub_x_1/U69:A 1.375e-04
*END

*R_NET a\[0\] 2.082e-02
*DRIVER a_reg_0_:Q
*CELL fds2eqd1_hd
*C2_R1_C1 1.041e-02 1.094e-02 1.041e-02 
*LOADS
*RC U184:C 2.278e-04
*RC U421:A 2.278e-04
*RC sub_x_1/U68:A 2.278e-04
*RC sub_x_1/U99:A 2.278e-04
*END

*R_NET value\[31\] 4.710e-03
*DRIVER value_reg_31_:Q
*CELL fds2eqd1_hd
*C2_R1_C1 2.355e-03 7.370e-03 2.355e-03 
*LOADS
*RC U64:E 3.471e-05
*END

*R_NET value\[30\] 4.710e-03
*DRIVER value_reg_30_:Q
*CELL fds2eqd1_hd
*C2_R1_C1 2.355e-03 7.370e-03 2.355e-03 
*LOADS
*RC U65:E 3.471e-05
*END

*R_NET value\[29\] 4.710e-03
*DRIVER value_reg_29_:Q
*CELL fds2eqd1_hd
*C2_R1_C1 2.355e-03 7.370e-03 2.355e-03 
*LOADS
*RC U66:E 3.471e-05
*END

*R_NET value\[28\] 4.710e-03
*DRIVER value_reg_28_:Q
*CELL fds2eqd1_hd
*C2_R1_C1 2.355e-03 7.370e-03 2.355e-03 
*LOADS
*RC U67:E 3.471e-05
*END

*R_NET value\[27\] 4.710e-03
*DRIVER value_reg_27_:Q
*CELL fds2eqd1_hd
*C2_R1_C1 2.355e-03 7.370e-03 2.355e-03 
*LOADS
*RC U68:E 3.471e-05
*END

*R_NET value\[26\] 4.710e-03
*DRIVER value_reg_26_:Q
*CELL fds2eqd1_hd
*C2_R1_C1 2.355e-03 7.370e-03 2.355e-03 
*LOADS
*RC U69:E 3.471e-05
*END

*R_NET value\[25\] 4.710e-03
*DRIVER value_reg_25_:Q
*CELL fds2eqd1_hd
*C2_R1_C1 2.355e-03 7.370e-03 2.355e-03 
*LOADS
*RC U70:E 3.471e-05
*END

*R_NET value\[24\] 4.710e-03
*DRIVER value_reg_24_:Q
*CELL fds2eqd1_hd
*C2_R1_C1 2.355e-03 7.370e-03 2.355e-03 
*LOADS
*RC U71:E 3.471e-05
*END

*R_NET value\[23\] 4.710e-03
*DRIVER value_reg_23_:Q
*CELL fds2eqd1_hd
*C2_R1_C1 2.355e-03 7.370e-03 2.355e-03 
*LOADS
*RC U72:E 3.471e-05
*END

*R_NET value\[22\] 4.710e-03
*DRIVER value_reg_22_:Q
*CELL fds2eqd1_hd
*C2_R1_C1 2.355e-03 7.370e-03 2.355e-03 
*LOADS
*RC U73:E 3.471e-05
*END

*R_NET value\[21\] 4.710e-03
*DRIVER value_reg_21_:Q
*CELL fds2eqd1_hd
*C2_R1_C1 2.355e-03 7.370e-03 2.355e-03 
*LOADS
*RC U74:E 3.471e-05
*END

*R_NET value\[20\] 4.710e-03
*DRIVER value_reg_20_:Q
*CELL fds2eqd1_hd
*C2_R1_C1 2.355e-03 7.370e-03 2.355e-03 
*LOADS
*RC U75:E 3.471e-05
*END

*R_NET value\[19\] 4.710e-03
*DRIVER value_reg_19_:Q
*CELL fds2eqd1_hd
*C2_R1_C1 2.355e-03 7.370e-03 2.355e-03 
*LOADS
*RC U76:E 3.471e-05
*END

*R_NET value\[18\] 4.710e-03
*DRIVER value_reg_18_:Q
*CELL fds2eqd1_hd
*C2_R1_C1 2.355e-03 7.370e-03 2.355e-03 
*LOADS
*RC U77:E 3.471e-05
*END

*R_NET value\[17\] 4.710e-03
*DRIVER value_reg_17_:Q
*CELL fds2eqd1_hd
*C2_R1_C1 2.355e-03 7.370e-03 2.355e-03 
*LOADS
*RC U78:E 3.471e-05
*END

*R_NET value\[16\] 4.710e-03
*DRIVER value_reg_16_:Q
*CELL fds2eqd1_hd
*C2_R1_C1 2.355e-03 7.370e-03 2.355e-03 
*LOADS
*RC U79:E 3.471e-05
*END

*R_NET value\[15\] 4.710e-03
*DRIVER value_reg_15_:Q
*CELL fds2eqd1_hd
*C2_R1_C1 2.355e-03 7.370e-03 2.355e-03 
*LOADS
*RC U80:E 3.471e-05
*END

*R_NET value\[14\] 4.710e-03
*DRIVER value_reg_14_:Q
*CELL fds2eqd1_hd
*C2_R1_C1 2.355e-03 7.370e-03 2.355e-03 
*LOADS
*RC U81:E 3.471e-05
*END

*R_NET value\[13\] 4.710e-03
*DRIVER value_reg_13_:Q
*CELL fds2eqd1_hd
*C2_R1_C1 2.355e-03 7.370e-03 2.355e-03 
*LOADS
*RC U82:E 3.471e-05
*END

*R_NET value\[12\] 4.710e-03
*DRIVER value_reg_12_:Q
*CELL fds2eqd1_hd
*C2_R1_C1 2.355e-03 7.370e-03 2.355e-03 
*LOADS
*RC U83:E 3.471e-05
*END

*R_NET value\[11\] 4.710e-03
*DRIVER value_reg_11_:Q
*CELL fds2eqd1_hd
*C2_R1_C1 2.355e-03 7.370e-03 2.355e-03 
*LOADS
*RC U84:E 3.471e-05
*END

*R_NET value\[10\] 4.710e-03
*DRIVER value_reg_10_:Q
*CELL fds2eqd1_hd
*C2_R1_C1 2.355e-03 7.370e-03 2.355e-03 
*LOADS
*RC U85:E 3.471e-05
*END

*R_NET value\[9\] 4.710e-03
*DRIVER value_reg_9_:Q
*CELL fds2eqd1_hd
*C2_R1_C1 2.355e-03 7.370e-03 2.355e-03 
*LOADS
*RC U86:E 3.471e-05
*END

*R_NET value\[8\] 4.710e-03
*DRIVER value_reg_8_:Q
*CELL fds2eqd1_hd
*C2_R1_C1 2.355e-03 7.370e-03 2.355e-03 
*LOADS
*RC U87:E 3.471e-05
*END
