*SPEF "IEEE 1481-1999"
*DESIGN "sensor_core"
*DATE "Tue Jun  9 04:28:11 2020"
*VENDOR "SYNOPSYS INC"
*PROGRAM "Synopsys Design Compiler cmos"
*VERSION "F-2011.09-SP5-3"
*DESIGN_FLOW "SYNTHESIS"
*DIVIDER /
*DELIMITER :
*BUS_DELIMITER []
*T_UNIT 1.0 NS
*C_UNIT 1.0 PF
*R_UNIT 1.0 KOHM
*L_UNIT 1.0 HENRY

*PORTS

o_UART_DATA_TX\[55\] O *L 1.035e-02 *S 1.730e-01 1.925e-01 
o_UART_DATA_TX\[54\] O *L 1.035e-02 *S 1.730e-01 1.925e-01 
o_UART_DATA_TX\[53\] O *L 1.035e-02 *S 1.724e-01 1.919e-01 
o_UART_DATA_TX\[52\] O *L 1.035e-02 *S 1.218e-01 8.281e-02 
o_UART_DATA_TX\[51\] O *L 1.035e-02 *S 1.730e-01 1.925e-01 
o_UART_DATA_TX\[50\] O *L 1.035e-02 *S 1.730e-01 1.925e-01 
o_UART_DATA_TX\[49\] O *L 1.035e-02 *S 1.730e-01 1.925e-01 
o_UART_DATA_TX\[48\] O *L 1.035e-02 *S 1.730e-01 1.925e-01 
o_UART_DATA_TX\[47\] O *L 1.035e-02 *S 1.730e-01 1.925e-01 
o_UART_DATA_TX\[46\] O *L 1.035e-02 *S 1.730e-01 1.925e-01 
o_UART_DATA_TX\[45\] O *L 1.035e-02 *S 1.730e-01 1.925e-01 
o_UART_DATA_TX\[44\] O *L 1.035e-02 *S 1.730e-01 1.925e-01 
o_UART_DATA_TX\[43\] O *L 1.035e-02 *S 1.730e-01 1.925e-01 
o_UART_DATA_TX\[42\] O *L 1.035e-02 *S 1.730e-01 1.925e-01 
o_UART_DATA_TX\[41\] O *L 1.035e-02 *S 1.730e-01 1.925e-01 
o_UART_DATA_TX\[40\] O *L 1.035e-02 *S 1.730e-01 1.925e-01 
o_UART_DATA_TX\[39\] O *L 1.035e-02 *S 1.730e-01 1.925e-01 
o_UART_DATA_TX\[38\] O *L 1.035e-02 *S 1.730e-01 1.925e-01 
o_UART_DATA_TX\[37\] O *L 1.035e-02 *S 1.730e-01 1.925e-01 
o_UART_DATA_TX\[36\] O *L 1.035e-02 *S 1.730e-01 1.925e-01 
o_UART_DATA_TX\[35\] O *L 1.035e-02 *S 1.730e-01 1.925e-01 
o_UART_DATA_TX\[34\] O *L 1.035e-02 *S 1.730e-01 1.925e-01 
o_UART_DATA_TX\[33\] O *L 1.035e-02 *S 1.730e-01 1.925e-01 
o_UART_DATA_TX\[32\] O *L 1.035e-02 *S 1.730e-01 1.925e-01 
o_UART_DATA_TX\[31\] O *L 1.035e-02 *S 1.730e-01 1.925e-01 
o_UART_DATA_TX\[30\] O *L 1.035e-02 *S 1.730e-01 1.925e-01 
o_UART_DATA_TX\[29\] O *L 1.035e-02 *S 1.730e-01 1.925e-01 
o_UART_DATA_TX\[28\] O *L 1.035e-02 *S 1.730e-01 1.925e-01 
o_UART_DATA_TX\[27\] O *L 1.035e-02 *S 1.730e-01 1.925e-01 
o_UART_DATA_TX\[26\] O *L 1.035e-02 *S 1.730e-01 1.925e-01 
o_UART_DATA_TX\[25\] O *L 1.035e-02 *S 1.730e-01 1.925e-01 
o_UART_DATA_TX\[24\] O *L 1.035e-02 *S 1.730e-01 1.925e-01 
o_UART_DATA_TX\[23\] O *L 1.035e-02 *S 1.218e-01 8.281e-02 
o_UART_DATA_TX\[22\] O *L 1.035e-02 *S 1.218e-01 8.281e-02 
o_UART_DATA_TX\[21\] O *L 1.035e-02 *S 1.218e-01 8.281e-02 
o_UART_DATA_TX\[20\] O *L 1.035e-02 *S 1.218e-01 8.281e-02 
o_UART_DATA_TX\[19\] O *L 1.035e-02 *S 1.730e-01 1.925e-01 
o_UART_DATA_TX\[18\] O *L 1.035e-02 *S 1.730e-01 1.925e-01 
o_UART_DATA_TX\[17\] O *L 1.035e-02 *S 1.730e-01 1.925e-01 
o_UART_DATA_TX\[16\] O *L 1.035e-02 *S 1.730e-01 1.925e-01 
o_UART_DATA_TX\[15\] O *L 1.035e-02 *S 1.730e-01 1.925e-01 
o_UART_DATA_TX\[14\] O *L 1.035e-02 *S 1.730e-01 1.925e-01 
o_UART_DATA_TX\[13\] O *L 1.035e-02 *S 1.730e-01 1.925e-01 
o_UART_DATA_TX\[12\] O *L 1.035e-02 *S 1.730e-01 1.925e-01 
o_UART_DATA_TX\[11\] O *L 1.035e-02 *S 1.730e-01 1.925e-01 
o_UART_DATA_TX\[10\] O *L 1.035e-02 *S 1.730e-01 1.925e-01 
o_UART_DATA_TX\[9\] O *L 1.035e-02 *S 1.730e-01 1.925e-01 
o_UART_DATA_TX\[8\] O *L 1.035e-02 *S 1.730e-01 1.925e-01 
o_UART_DATA_TX\[7\] O *L 1.035e-02 *S 1.730e-01 1.925e-01 
o_UART_DATA_TX\[6\] O *L 1.035e-02 *S 1.218e-01 8.281e-02 
o_UART_DATA_TX\[5\] O *L 1.035e-02 *S 1.730e-01 1.925e-01 
o_UART_DATA_TX\[4\] O *L 1.035e-02 *S 1.730e-01 1.925e-01 
o_UART_DATA_TX\[3\] O *L 1.035e-02 *S 1.730e-01 1.925e-01 
o_UART_DATA_TX\[2\] O *L 1.035e-02 *S 1.218e-01 8.281e-02 
o_UART_DATA_TX\[1\] O *L 1.035e-02 *S 1.730e-01 1.925e-01 
o_UART_DATA_TX\[0\] O *L 1.035e-02 *S 1.730e-01 1.925e-01 
o_UART_DATA_TX_VALID O *L 1.035e-02 *S 1.730e-01 1.925e-01 
i_UART_DATA_TX_READY I *L 0.000e+00 *S 0.000e+00 0.000e+00 
i_UART_DATA_RX\[15\] I *L 0.000e+00 *S 0.000e+00 0.000e+00 
i_UART_DATA_RX\[14\] I *L 0.000e+00 *S 0.000e+00 0.000e+00 
i_UART_DATA_RX\[13\] I *L 0.000e+00 *S 0.000e+00 0.000e+00 
i_UART_DATA_RX\[12\] I *L 0.000e+00 *S 0.000e+00 0.000e+00 
i_UART_DATA_RX\[11\] I *L 0.000e+00 *S 0.000e+00 0.000e+00 
i_UART_DATA_RX\[10\] I *L 0.000e+00 *S 0.000e+00 0.000e+00 
i_UART_DATA_RX\[9\] I *L 0.000e+00 *S 0.000e+00 0.000e+00 
i_UART_DATA_RX\[8\] I *L 0.000e+00 *S 0.000e+00 0.000e+00 
i_UART_DATA_RX\[7\] I *L 0.000e+00 *S 0.000e+00 0.000e+00 
i_UART_DATA_RX\[6\] I *L 0.000e+00 *S 0.000e+00 0.000e+00 
i_UART_DATA_RX\[5\] I *L 0.000e+00 *S 0.000e+00 0.000e+00 
i_UART_DATA_RX\[4\] I *L 0.000e+00 *S 0.000e+00 0.000e+00 
i_UART_DATA_RX\[3\] I *L 0.000e+00 *S 0.000e+00 0.000e+00 
i_UART_DATA_RX\[2\] I *L 0.000e+00 *S 0.000e+00 0.000e+00 
i_UART_DATA_RX\[1\] I *L 0.000e+00 *S 0.000e+00 0.000e+00 
i_UART_DATA_RX\[0\] I *L 0.000e+00 *S 0.000e+00 0.000e+00 
i_UART_DATA_RX_VALID I *L 0.000e+00 *S 0.000e+00 0.000e+00 
i_MPR121_DATA_OUT\[7\] I *L 0.000e+00 *S 0.000e+00 0.000e+00 
i_MPR121_DATA_OUT\[6\] I *L 0.000e+00 *S 0.000e+00 0.000e+00 
i_MPR121_DATA_OUT\[5\] I *L 0.000e+00 *S 0.000e+00 0.000e+00 
i_MPR121_DATA_OUT\[4\] I *L 0.000e+00 *S 0.000e+00 0.000e+00 
i_MPR121_DATA_OUT\[3\] I *L 0.000e+00 *S 0.000e+00 0.000e+00 
i_MPR121_DATA_OUT\[2\] I *L 0.000e+00 *S 0.000e+00 0.000e+00 
i_MPR121_DATA_OUT\[1\] I *L 0.000e+00 *S 0.000e+00 0.000e+00 
i_MPR121_DATA_OUT\[0\] I *L 0.000e+00 *S 0.000e+00 0.000e+00 
o_MPR121_REG_ADDR\[7\] O *L 1.035e-02 *S 1.730e-01 1.925e-01 
o_MPR121_REG_ADDR\[6\] O *L 1.035e-02 *S 1.730e-01 1.925e-01 
o_MPR121_REG_ADDR\[5\] O *L 1.035e-02 *S 1.730e-01 1.925e-01 
o_MPR121_REG_ADDR\[4\] O *L 1.035e-02 *S 1.730e-01 1.925e-01 
o_MPR121_REG_ADDR\[3\] O *L 1.035e-02 *S 1.730e-01 1.925e-01 
o_MPR121_REG_ADDR\[2\] O *L 1.035e-02 *S 1.730e-01 1.925e-01 
o_MPR121_REG_ADDR\[1\] O *L 1.035e-02 *S 1.730e-01 1.925e-01 
o_MPR121_REG_ADDR\[0\] O *L 1.035e-02 *S 1.730e-01 1.925e-01 
o_MPR121_DATA_IN\[7\] O *L 1.035e-02 *S 1.730e-01 1.925e-01 
o_MPR121_DATA_IN\[6\] O *L 1.035e-02 *S 1.730e-01 1.925e-01 
o_MPR121_DATA_IN\[5\] O *L 1.035e-02 *S 1.218e-01 8.281e-02 
o_MPR121_DATA_IN\[4\] O *L 1.035e-02 *S 1.730e-01 1.925e-01 
o_MPR121_DATA_IN\[3\] O *L 1.035e-02 *S 1.730e-01 1.925e-01 
o_MPR121_DATA_IN\[2\] O *L 1.035e-02 *S 1.730e-01 1.925e-01 
o_MPR121_DATA_IN\[1\] O *L 1.035e-02 *S 1.730e-01 1.925e-01 
o_MPR121_DATA_IN\[0\] O *L 1.035e-02 *S 1.730e-01 1.925e-01 
o_MPR121_WRITE_ENABLE O *L 1.035e-02 *S 1.730e-01 1.925e-01 
o_MPR121_READ_ENABLE O *L 1.035e-02 *S 1.730e-01 1.925e-01 
i_MPR121_INIT_SET I *L 0.000e+00 *S 0.000e+00 0.000e+00 
i_MPR121_BUSY I *L 0.000e+00 *S 0.000e+00 0.000e+00 
i_MPR121_FAIL I *L 0.000e+00 *S 0.000e+00 0.000e+00 
o_MPR121_ERROR O *L 1.035e-02 *S 1.742e-01 1.937e-01 
i_ADS1292_FILTERED_DATA_OUT\[23\] I *L 0.000e+00 *S 0.000e+00 0.000e+00 
i_ADS1292_FILTERED_DATA_OUT\[22\] I *L 0.000e+00 *S 0.000e+00 0.000e+00 
i_ADS1292_FILTERED_DATA_OUT\[21\] I *L 0.000e+00 *S 0.000e+00 0.000e+00 
i_ADS1292_FILTERED_DATA_OUT\[20\] I *L 0.000e+00 *S 0.000e+00 0.000e+00 
i_ADS1292_FILTERED_DATA_OUT\[19\] I *L 0.000e+00 *S 0.000e+00 0.000e+00 
i_ADS1292_FILTERED_DATA_OUT\[18\] I *L 0.000e+00 *S 0.000e+00 0.000e+00 
i_ADS1292_FILTERED_DATA_OUT\[17\] I *L 0.000e+00 *S 0.000e+00 0.000e+00 
i_ADS1292_FILTERED_DATA_OUT\[16\] I *L 0.000e+00 *S 0.000e+00 0.000e+00 
i_ADS1292_FILTERED_DATA_OUT\[15\] I *L 0.000e+00 *S 0.000e+00 0.000e+00 
i_ADS1292_FILTERED_DATA_OUT\[14\] I *L 0.000e+00 *S 0.000e+00 0.000e+00 
i_ADS1292_FILTERED_DATA_OUT\[13\] I *L 0.000e+00 *S 0.000e+00 0.000e+00 
i_ADS1292_FILTERED_DATA_OUT\[12\] I *L 0.000e+00 *S 0.000e+00 0.000e+00 
i_ADS1292_FILTERED_DATA_OUT\[11\] I *L 0.000e+00 *S 0.000e+00 0.000e+00 
i_ADS1292_FILTERED_DATA_OUT\[10\] I *L 0.000e+00 *S 0.000e+00 0.000e+00 
i_ADS1292_FILTERED_DATA_OUT\[9\] I *L 0.000e+00 *S 0.000e+00 0.000e+00 
i_ADS1292_FILTERED_DATA_OUT\[8\] I *L 0.000e+00 *S 0.000e+00 0.000e+00 
i_ADS1292_FILTERED_DATA_OUT\[7\] I *L 0.000e+00 *S 0.000e+00 0.000e+00 
i_ADS1292_FILTERED_DATA_OUT\[6\] I *L 0.000e+00 *S 0.000e+00 0.000e+00 
i_ADS1292_FILTERED_DATA_OUT\[5\] I *L 0.000e+00 *S 0.000e+00 0.000e+00 
i_ADS1292_FILTERED_DATA_OUT\[4\] I *L 0.000e+00 *S 0.000e+00 0.000e+00 
i_ADS1292_FILTERED_DATA_OUT\[3\] I *L 0.000e+00 *S 0.000e+00 0.000e+00 
i_ADS1292_FILTERED_DATA_OUT\[2\] I *L 0.000e+00 *S 0.000e+00 0.000e+00 
i_ADS1292_FILTERED_DATA_OUT\[1\] I *L 0.000e+00 *S 0.000e+00 0.000e+00 
i_ADS1292_FILTERED_DATA_OUT\[0\] I *L 0.000e+00 *S 0.000e+00 0.000e+00 
o_ADS1292_CONTROL\[2\] O *L 1.035e-02 *S 1.730e-01 1.925e-01 
o_ADS1292_CONTROL\[1\] O *L 1.035e-02 *S 1.730e-01 1.925e-01 
o_ADS1292_CONTROL\[0\] O *L 1.035e-02 *S 1.730e-01 1.925e-01 
o_ADS1292_REG_ADDR\[7\] O *L 1.035e-02 *S 1.730e-01 1.925e-01 
o_ADS1292_REG_ADDR\[6\] O *L 1.035e-02 *S 1.730e-01 1.925e-01 
o_ADS1292_REG_ADDR\[5\] O *L 1.035e-02 *S 1.730e-01 1.925e-01 
o_ADS1292_REG_ADDR\[4\] O *L 1.035e-02 *S 1.730e-01 1.925e-01 
o_ADS1292_REG_ADDR\[3\] O *L 1.035e-02 *S 1.730e-01 1.925e-01 
o_ADS1292_REG_ADDR\[2\] O *L 1.035e-02 *S 1.730e-01 1.925e-01 
o_ADS1292_REG_ADDR\[1\] O *L 1.035e-02 *S 1.730e-01 1.925e-01 
o_ADS1292_REG_ADDR\[0\] O *L 1.035e-02 *S 1.730e-01 1.925e-01 
o_ADS1292_DATA_IN\[7\] O *L 1.035e-02 *S 1.730e-01 1.925e-01 
o_ADS1292_DATA_IN\[6\] O *L 1.035e-02 *S 1.730e-01 1.925e-01 
o_ADS1292_DATA_IN\[5\] O *L 1.035e-02 *S 1.730e-01 1.925e-01 
o_ADS1292_DATA_IN\[4\] O *L 1.035e-02 *S 1.730e-01 1.925e-01 
o_ADS1292_DATA_IN\[3\] O *L 1.035e-02 *S 1.730e-01 1.925e-01 
o_ADS1292_DATA_IN\[2\] O *L 1.035e-02 *S 1.730e-01 1.925e-01 
o_ADS1292_DATA_IN\[1\] O *L 1.035e-02 *S 1.730e-01 1.925e-01 
o_ADS1292_DATA_IN\[0\] O *L 1.035e-02 *S 1.730e-01 1.925e-01 
i_ADS1292_REG_DATA_OUT\[7\] I *L 0.000e+00 *S 0.000e+00 0.000e+00 
i_ADS1292_REG_DATA_OUT\[6\] I *L 0.000e+00 *S 0.000e+00 0.000e+00 
i_ADS1292_REG_DATA_OUT\[5\] I *L 0.000e+00 *S 0.000e+00 0.000e+00 
i_ADS1292_REG_DATA_OUT\[4\] I *L 0.000e+00 *S 0.000e+00 0.000e+00 
i_ADS1292_REG_DATA_OUT\[3\] I *L 0.000e+00 *S 0.000e+00 0.000e+00 
i_ADS1292_REG_DATA_OUT\[2\] I *L 0.000e+00 *S 0.000e+00 0.000e+00 
i_ADS1292_REG_DATA_OUT\[1\] I *L 0.000e+00 *S 0.000e+00 0.000e+00 
i_ADS1292_REG_DATA_OUT\[0\] I *L 0.000e+00 *S 0.000e+00 0.000e+00 
i_ADS1292_INIT_SET I *L 0.000e+00 *S 0.000e+00 0.000e+00 
i_ADS1292_FILTERED_DATA_VALID I *L 0.000e+00 *S 0.000e+00 0.000e+00 
o_ADS1292_FILTERED_DATA_ACK O *L 1.035e-02 *S 1.730e-01 1.925e-01 
i_ADS1292_BUSY I *L 0.000e+00 *S 0.000e+00 0.000e+00 
i_CLK I *L 0.000e+00 *S 0.000e+00 0.000e+00 
i_RST I *L 0.000e+00 *S 0.000e+00 0.000e+00 

*R_NET N7 6.304e-02
*DRIVER U24:Y
*CELL ivd1_hd
*C2_R1_C1 3.152e-02 2.261e-02 3.152e-02 
*LOADS
*RC U689:A 1.425e-03
*RC U690:A 1.425e-03
*RC U691:A 1.425e-03
*RC U692:A 1.425e-03
*RC U693:A 1.425e-03
*RC U694:A 1.425e-03
*RC U695:A 1.425e-03
*RC U696:A 1.425e-03
*RC U697:A 1.425e-03
*RC U698:A 1.425e-03
*RC U699:A 1.425e-03
*RC U700:A 1.425e-03
*RC U701:A 1.425e-03
*RC U702:A 1.425e-03
*RC U703:A 1.425e-03
*RC U704:A 1.425e-03
*END

*R_NET N63 4.909e-02
*DRIVER U19:Y
*CELL ivd1_hd
*C2_R1_C1 2.455e-02 2.090e-02 2.455e-02 
*LOADS
*RC U1186:A 1.026e-03
*RC U1200:A 1.026e-03
*RC U1275:B 1.026e-03
*RC U1389:A 1.026e-03
*RC U1568:A 1.026e-03
*RC U8:B 1.026e-03
*RC U526:A 1.026e-03
*RC U529:A 1.026e-03
*RC U530:A 1.026e-03
*END

*R_NET N68 6.014e-02
*DRIVER U1245:Y
*CELL nid1_hd
*C2_R1_C1 3.007e-02 2.212e-02 3.007e-02 
*LOADS
*RC U1142:B 1.330e-03
*RC U1214:B 1.330e-03
*RC U559:B 1.330e-03
*RC U560:B 1.330e-03
*RC U561:B 1.330e-03
*RC U562:B 1.330e-03
*RC U563:B 1.330e-03
*RC U564:B 1.330e-03
*RC U565:B 1.330e-03
*RC U566:B 1.330e-03
*RC U567:B 1.330e-03
*RC U568:B 1.330e-03
*RC U569:B 1.330e-03
*RC U570:B 1.330e-03
*END

*R_NET o_UART_DATA_TX\[55\] 1.777e-02
*DRIVER o_UART_DATA_TX_reg_55_:Q
*CELL fd4qd1_hd
*C2_R1_C1 8.885e-03 9.100e-03 8.885e-03 
*LOADS
*RC U1357:D0 1.617e-04
*RC o_UART_DATA_TX\[55\] 1.617e-04
*END

*R_NET o_UART_DATA_TX\[54\] 1.777e-02
*DRIVER o_UART_DATA_TX_reg_54_:Q
*CELL fd4qd1_hd
*C2_R1_C1 8.885e-03 9.100e-03 8.885e-03 
*LOADS
*RC U1356:D0 1.617e-04
*RC o_UART_DATA_TX\[54\] 1.617e-04
*END

*R_NET o_UART_DATA_TX\[53\] 1.770e-02
*DRIVER o_UART_DATA_TX_reg_53_:Q
*CELL fd4qd1_hd
*C2_R1_C1 8.850e-03 9.100e-03 8.850e-03 
*LOADS
*RC U6:A 1.611e-04
*RC o_UART_DATA_TX\[53\] 1.611e-04
*END

*R_NET o_UART_DATA_TX\[51\] 1.777e-02
*DRIVER o_UART_DATA_TX_reg_51_:Q
*CELL fd4qd1_hd
*C2_R1_C1 8.885e-03 9.100e-03 8.885e-03 
*LOADS
*RC U1354:D0 1.617e-04
*RC o_UART_DATA_TX\[51\] 1.617e-04
*END

*R_NET o_UART_DATA_TX\[50\] 1.777e-02
*DRIVER o_UART_DATA_TX_reg_50_:Q
*CELL fd4qd1_hd
*C2_R1_C1 8.885e-03 9.100e-03 8.885e-03 
*LOADS
*RC U1353:D0 1.617e-04
*RC o_UART_DATA_TX\[50\] 1.617e-04
*END

*R_NET o_UART_DATA_TX\[49\] 1.777e-02
*DRIVER o_UART_DATA_TX_reg_49_:Q
*CELL fd4qd1_hd
*C2_R1_C1 8.885e-03 9.100e-03 8.885e-03 
*LOADS
*RC U1352:D0 1.617e-04
*RC o_UART_DATA_TX\[49\] 1.617e-04
*END

*R_NET o_UART_DATA_TX\[48\] 1.777e-02
*DRIVER o_UART_DATA_TX_reg_48_:Q
*CELL fd4qd1_hd
*C2_R1_C1 8.885e-03 9.100e-03 8.885e-03 
*LOADS
*RC U1351:D0 1.617e-04
*RC o_UART_DATA_TX\[48\] 1.617e-04
*END

*R_NET o_UART_DATA_TX\[47\] 1.777e-02
*DRIVER o_UART_DATA_TX_reg_47_:Q
*CELL fd4qd1_hd
*C2_R1_C1 8.885e-03 9.100e-03 8.885e-03 
*LOADS
*RC U1350:D0 1.617e-04
*RC o_UART_DATA_TX\[47\] 1.617e-04
*END

*R_NET o_UART_DATA_TX\[46\] 1.777e-02
*DRIVER o_UART_DATA_TX_reg_46_:Q
*CELL fd4qd1_hd
*C2_R1_C1 8.885e-03 9.100e-03 8.885e-03 
*LOADS
*RC U1349:D0 1.617e-04
*RC o_UART_DATA_TX\[46\] 1.617e-04
*END

*R_NET o_UART_DATA_TX\[45\] 1.777e-02
*DRIVER o_UART_DATA_TX_reg_45_:Q
*CELL fd4qd1_hd
*C2_R1_C1 8.885e-03 9.100e-03 8.885e-03 
*LOADS
*RC U1348:D0 1.617e-04
*RC o_UART_DATA_TX\[45\] 1.617e-04
*END

*R_NET o_UART_DATA_TX\[44\] 1.777e-02
*DRIVER o_UART_DATA_TX_reg_44_:Q
*CELL fd4qd1_hd
*C2_R1_C1 8.885e-03 9.100e-03 8.885e-03 
*LOADS
*RC U1347:D0 1.617e-04
*RC o_UART_DATA_TX\[44\] 1.617e-04
*END

*R_NET o_UART_DATA_TX\[43\] 1.777e-02
*DRIVER o_UART_DATA_TX_reg_43_:Q
*CELL fd4qd1_hd
*C2_R1_C1 8.885e-03 9.100e-03 8.885e-03 
*LOADS
*RC U1346:D0 1.617e-04
*RC o_UART_DATA_TX\[43\] 1.617e-04
*END

*R_NET o_UART_DATA_TX\[42\] 1.777e-02
*DRIVER o_UART_DATA_TX_reg_42_:Q
*CELL fd4qd1_hd
*C2_R1_C1 8.885e-03 9.100e-03 8.885e-03 
*LOADS
*RC U1345:D0 1.617e-04
*RC o_UART_DATA_TX\[42\] 1.617e-04
*END

*R_NET o_UART_DATA_TX\[41\] 1.777e-02
*DRIVER o_UART_DATA_TX_reg_41_:Q
*CELL fd4qd1_hd
*C2_R1_C1 8.885e-03 9.100e-03 8.885e-03 
*LOADS
*RC U1344:D0 1.617e-04
*RC o_UART_DATA_TX\[41\] 1.617e-04
*END

*R_NET o_UART_DATA_TX\[40\] 1.777e-02
*DRIVER o_UART_DATA_TX_reg_40_:Q
*CELL fd4qd1_hd
*C2_R1_C1 8.885e-03 9.100e-03 8.885e-03 
*LOADS
*RC U1343:D0 1.617e-04
*RC o_UART_DATA_TX\[40\] 1.617e-04
*END

*R_NET o_UART_DATA_TX\[39\] 1.777e-02
*DRIVER o_UART_DATA_TX_reg_39_:Q
*CELL fd4qd1_hd
*C2_R1_C1 8.885e-03 9.100e-03 8.885e-03 
*LOADS
*RC U1342:D0 1.617e-04
*RC o_UART_DATA_TX\[39\] 1.617e-04
*END

*R_NET o_UART_DATA_TX\[38\] 1.777e-02
*DRIVER o_UART_DATA_TX_reg_38_:Q
*CELL fd4qd1_hd
*C2_R1_C1 8.885e-03 9.100e-03 8.885e-03 
*LOADS
*RC U1341:D0 1.617e-04
*RC o_UART_DATA_TX\[38\] 1.617e-04
*END

*R_NET o_UART_DATA_TX\[37\] 1.777e-02
*DRIVER o_UART_DATA_TX_reg_37_:Q
*CELL fd4qd1_hd
*C2_R1_C1 8.885e-03 9.100e-03 8.885e-03 
*LOADS
*RC U1340:D0 1.617e-04
*RC o_UART_DATA_TX\[37\] 1.617e-04
*END

*R_NET o_UART_DATA_TX\[36\] 1.777e-02
*DRIVER o_UART_DATA_TX_reg_36_:Q
*CELL fd4qd1_hd
*C2_R1_C1 8.885e-03 9.100e-03 8.885e-03 
*LOADS
*RC U1339:D0 1.617e-04
*RC o_UART_DATA_TX\[36\] 1.617e-04
*END

*R_NET o_UART_DATA_TX\[35\] 1.777e-02
*DRIVER o_UART_DATA_TX_reg_35_:Q
*CELL fd4qd1_hd
*C2_R1_C1 8.885e-03 9.100e-03 8.885e-03 
*LOADS
*RC U1338:D0 1.617e-04
*RC o_UART_DATA_TX\[35\] 1.617e-04
*END

*R_NET o_UART_DATA_TX\[34\] 1.777e-02
*DRIVER o_UART_DATA_TX_reg_34_:Q
*CELL fd4qd1_hd
*C2_R1_C1 8.885e-03 9.100e-03 8.885e-03 
*LOADS
*RC U1337:D0 1.617e-04
*RC o_UART_DATA_TX\[34\] 1.617e-04
*END

*R_NET o_UART_DATA_TX\[33\] 1.777e-02
*DRIVER o_UART_DATA_TX_reg_33_:Q
*CELL fd4qd1_hd
*C2_R1_C1 8.885e-03 9.100e-03 8.885e-03 
*LOADS
*RC U1336:D0 1.617e-04
*RC o_UART_DATA_TX\[33\] 1.617e-04
*END

*R_NET o_UART_DATA_TX\[32\] 1.777e-02
*DRIVER o_UART_DATA_TX_reg_32_:Q
*CELL fd4qd1_hd
*C2_R1_C1 8.885e-03 9.100e-03 8.885e-03 
*LOADS
*RC U1335:D0 1.617e-04
*RC o_UART_DATA_TX\[32\] 1.617e-04
*END

*R_NET o_UART_DATA_TX\[31\] 1.777e-02
*DRIVER o_UART_DATA_TX_reg_31_:Q
*CELL fd4qd1_hd
*C2_R1_C1 8.885e-03 9.100e-03 8.885e-03 
*LOADS
*RC U1334:D0 1.617e-04
*RC o_UART_DATA_TX\[31\] 1.617e-04
*END

*R_NET o_UART_DATA_TX\[30\] 1.777e-02
*DRIVER o_UART_DATA_TX_reg_30_:Q
*CELL fd4qd1_hd
*C2_R1_C1 8.885e-03 9.100e-03 8.885e-03 
*LOADS
*RC U1333:D0 1.617e-04
*RC o_UART_DATA_TX\[30\] 1.617e-04
*END

*R_NET o_UART_DATA_TX\[29\] 1.777e-02
*DRIVER o_UART_DATA_TX_reg_29_:Q
*CELL fd4qd1_hd
*C2_R1_C1 8.885e-03 9.100e-03 8.885e-03 
*LOADS
*RC U1332:D0 1.617e-04
*RC o_UART_DATA_TX\[29\] 1.617e-04
*END

*R_NET o_UART_DATA_TX\[28\] 1.777e-02
*DRIVER o_UART_DATA_TX_reg_28_:Q
*CELL fd4qd1_hd
*C2_R1_C1 8.885e-03 9.100e-03 8.885e-03 
*LOADS
*RC U1331:D0 1.617e-04
*RC o_UART_DATA_TX\[28\] 1.617e-04
*END

*R_NET o_UART_DATA_TX\[27\] 1.777e-02
*DRIVER o_UART_DATA_TX_reg_27_:Q
*CELL fd4qd1_hd
*C2_R1_C1 8.885e-03 9.100e-03 8.885e-03 
*LOADS
*RC U1330:D0 1.617e-04
*RC o_UART_DATA_TX\[27\] 1.617e-04
*END

*R_NET o_UART_DATA_TX\[26\] 1.777e-02
*DRIVER o_UART_DATA_TX_reg_26_:Q
*CELL fd4qd1_hd
*C2_R1_C1 8.885e-03 9.100e-03 8.885e-03 
*LOADS
*RC U1329:D0 1.617e-04
*RC o_UART_DATA_TX\[26\] 1.617e-04
*END

*R_NET o_UART_DATA_TX\[25\] 1.777e-02
*DRIVER o_UART_DATA_TX_reg_25_:Q
*CELL fd4qd1_hd
*C2_R1_C1 8.885e-03 9.100e-03 8.885e-03 
*LOADS
*RC U1328:D0 1.617e-04
*RC o_UART_DATA_TX\[25\] 1.617e-04
*END

*R_NET o_UART_DATA_TX\[24\] 1.777e-02
*DRIVER o_UART_DATA_TX_reg_24_:Q
*CELL fd4qd1_hd
*C2_R1_C1 8.885e-03 9.100e-03 8.885e-03 
*LOADS
*RC U1327:D0 1.617e-04
*RC o_UART_DATA_TX\[24\] 1.617e-04
*END

*R_NET o_UART_DATA_TX\[19\] 1.777e-02
*DRIVER o_UART_DATA_TX_reg_19_:Q
*CELL fd4qd1_hd
*C2_R1_C1 8.885e-03 9.100e-03 8.885e-03 
*LOADS
*RC U1326:D0 1.617e-04
*RC o_UART_DATA_TX\[19\] 1.617e-04
*END

*R_NET o_UART_DATA_TX\[18\] 1.777e-02
*DRIVER o_UART_DATA_TX_reg_18_:Q
*CELL fd4qd1_hd
*C2_R1_C1 8.885e-03 9.100e-03 8.885e-03 
*LOADS
*RC U1325:D0 1.617e-04
*RC o_UART_DATA_TX\[18\] 1.617e-04
*END

*R_NET o_UART_DATA_TX\[17\] 1.777e-02
*DRIVER o_UART_DATA_TX_reg_17_:Q
*CELL fd4qd1_hd
*C2_R1_C1 8.885e-03 9.100e-03 8.885e-03 
*LOADS
*RC U1324:D0 1.617e-04
*RC o_UART_DATA_TX\[17\] 1.617e-04
*END

*R_NET o_UART_DATA_TX\[16\] 1.777e-02
*DRIVER o_UART_DATA_TX_reg_16_:Q
*CELL fd4qd1_hd
*C2_R1_C1 8.885e-03 9.100e-03 8.885e-03 
*LOADS
*RC U1323:D0 1.617e-04
*RC o_UART_DATA_TX\[16\] 1.617e-04
*END

*R_NET o_UART_DATA_TX\[15\] 1.777e-02
*DRIVER o_UART_DATA_TX_reg_15_:Q
*CELL fd4qd1_hd
*C2_R1_C1 8.885e-03 9.100e-03 8.885e-03 
*LOADS
*RC U1322:D0 1.617e-04
*RC o_UART_DATA_TX\[15\] 1.617e-04
*END

*R_NET o_UART_DATA_TX\[14\] 1.777e-02
*DRIVER o_UART_DATA_TX_reg_14_:Q
*CELL fd4qd1_hd
*C2_R1_C1 8.885e-03 9.100e-03 8.885e-03 
*LOADS
*RC U1321:D0 1.617e-04
*RC o_UART_DATA_TX\[14\] 1.617e-04
*END

*R_NET o_UART_DATA_TX\[13\] 1.777e-02
*DRIVER o_UART_DATA_TX_reg_13_:Q
*CELL fd4qd1_hd
*C2_R1_C1 8.885e-03 9.100e-03 8.885e-03 
*LOADS
*RC U1320:D0 1.617e-04
*RC o_UART_DATA_TX\[13\] 1.617e-04
*END

*R_NET o_UART_DATA_TX\[12\] 1.777e-02
*DRIVER o_UART_DATA_TX_reg_12_:Q
*CELL fd4qd1_hd
*C2_R1_C1 8.885e-03 9.100e-03 8.885e-03 
*LOADS
*RC U1319:D0 1.617e-04
*RC o_UART_DATA_TX\[12\] 1.617e-04
*END

*R_NET o_UART_DATA_TX\[11\] 1.777e-02
*DRIVER o_UART_DATA_TX_reg_11_:Q
*CELL fd4qd1_hd
*C2_R1_C1 8.885e-03 9.100e-03 8.885e-03 
*LOADS
*RC U1318:D0 1.617e-04
*RC o_UART_DATA_TX\[11\] 1.617e-04
*END

*R_NET o_UART_DATA_TX\[10\] 1.777e-02
*DRIVER o_UART_DATA_TX_reg_10_:Q
*CELL fd4qd1_hd
*C2_R1_C1 8.885e-03 9.100e-03 8.885e-03 
*LOADS
*RC U1317:D0 1.617e-04
*RC o_UART_DATA_TX\[10\] 1.617e-04
*END

*R_NET o_UART_DATA_TX\[9\] 1.777e-02
*DRIVER o_UART_DATA_TX_reg_9_:Q
*CELL fd4qd1_hd
*C2_R1_C1 8.885e-03 9.100e-03 8.885e-03 
*LOADS
*RC U1316:D0 1.617e-04
*RC o_UART_DATA_TX\[9\] 1.617e-04
*END

*R_NET o_UART_DATA_TX\[8\] 1.777e-02
*DRIVER o_UART_DATA_TX_reg_8_:Q
*CELL fd4qd1_hd
*C2_R1_C1 8.885e-03 9.100e-03 8.885e-03 
*LOADS
*RC U1315:D0 1.617e-04
*RC o_UART_DATA_TX\[8\] 1.617e-04
*END

*R_NET o_UART_DATA_TX\[7\] 1.777e-02
*DRIVER o_UART_DATA_TX_reg_7_:Q
*CELL fd4qd1_hd
*C2_R1_C1 8.885e-03 9.100e-03 8.885e-03 
*LOADS
*RC U1314:D0 1.617e-04
*RC o_UART_DATA_TX\[7\] 1.617e-04
*END

*R_NET o_UART_DATA_TX\[5\] 1.777e-02
*DRIVER o_UART_DATA_TX_reg_5_:Q
*CELL fd4qd1_hd
*C2_R1_C1 8.885e-03 9.100e-03 8.885e-03 
*LOADS
*RC U1313:D0 1.617e-04
*RC o_UART_DATA_TX\[5\] 1.617e-04
*END

*R_NET o_UART_DATA_TX\[4\] 1.777e-02
*DRIVER o_UART_DATA_TX_reg_4_:Q
*CELL fd4qd1_hd
*C2_R1_C1 8.885e-03 9.100e-03 8.885e-03 
*LOADS
*RC U1312:D0 1.617e-04
*RC o_UART_DATA_TX\[4\] 1.617e-04
*END

*R_NET o_UART_DATA_TX\[3\] 1.777e-02
*DRIVER o_UART_DATA_TX_reg_3_:Q
*CELL fd4qd1_hd
*C2_R1_C1 8.885e-03 9.100e-03 8.885e-03 
*LOADS
*RC U1311:D0 1.617e-04
*RC o_UART_DATA_TX\[3\] 1.617e-04
*END

*R_NET o_UART_DATA_TX\[1\] 1.777e-02
*DRIVER o_UART_DATA_TX_reg_1_:Q
*CELL fd4qd1_hd
*C2_R1_C1 8.885e-03 9.100e-03 8.885e-03 
*LOADS
*RC U1310:D0 1.617e-04
*RC o_UART_DATA_TX\[1\] 1.617e-04
*END

*R_NET o_UART_DATA_TX\[0\] 1.777e-02
*DRIVER o_UART_DATA_TX_reg_0_:Q
*CELL fd4qd1_hd
*C2_R1_C1 8.885e-03 9.100e-03 8.885e-03 
*LOADS
*RC U1309:D0 1.617e-04
*RC o_UART_DATA_TX\[0\] 1.617e-04
*END

*R_NET o_UART_DATA_TX_VALID 1.777e-02
*DRIVER o_UART_DATA_TX_VALID_reg:Q
*CELL fd4qd1_hd
*C2_R1_C1 8.885e-03 9.100e-03 8.885e-03 
*LOADS
*RC U1490:D0 1.617e-04
*RC o_UART_DATA_TX_VALID 1.617e-04
*END

*R_NET i_UART_DATA_TX_READY 9.330e-03
*DRIVER i_UART_DATA_TX_READY
*CELL NULL
*C2_R1_C1 4.665e-03 9.100e-03 4.665e-03 
*LOADS
*RC U1242:B 8.490e-05
*RC U26:AN 8.490e-05
*END

*R_NET i_UART_DATA_RX\[15\] 4.740e-03
*DRIVER i_UART_DATA_RX\[15\]
*CELL NULL
*C2_R1_C1 2.370e-03 7.370e-03 2.370e-03 
*LOADS
*RC U689:B 3.493e-05
*END

*R_NET i_UART_DATA_RX\[14\] 4.740e-03
*DRIVER i_UART_DATA_RX\[14\]
*CELL NULL
*C2_R1_C1 2.370e-03 7.370e-03 2.370e-03 
*LOADS
*RC U690:B 3.493e-05
*END

*R_NET i_UART_DATA_RX\[13\] 4.740e-03
*DRIVER i_UART_DATA_RX\[13\]
*CELL NULL
*C2_R1_C1 2.370e-03 7.370e-03 2.370e-03 
*LOADS
*RC U691:B 3.493e-05
*END

*R_NET i_UART_DATA_RX\[12\] 4.740e-03
*DRIVER i_UART_DATA_RX\[12\]
*CELL NULL
*C2_R1_C1 2.370e-03 7.370e-03 2.370e-03 
*LOADS
*RC U692:B 3.493e-05
*END

*R_NET i_UART_DATA_RX\[11\] 4.740e-03
*DRIVER i_UART_DATA_RX\[11\]
*CELL NULL
*C2_R1_C1 2.370e-03 7.370e-03 2.370e-03 
*LOADS
*RC U693:B 3.493e-05
*END

*R_NET i_UART_DATA_RX\[10\] 4.740e-03
*DRIVER i_UART_DATA_RX\[10\]
*CELL NULL
*C2_R1_C1 2.370e-03 7.370e-03 2.370e-03 
*LOADS
*RC U694:B 3.493e-05
*END

*R_NET i_UART_DATA_RX\[9\] 4.740e-03
*DRIVER i_UART_DATA_RX\[9\]
*CELL NULL
*C2_R1_C1 2.370e-03 7.370e-03 2.370e-03 
*LOADS
*RC U695:B 3.493e-05
*END

*R_NET i_UART_DATA_RX\[8\] 4.740e-03
*DRIVER i_UART_DATA_RX\[8\]
*CELL NULL
*C2_R1_C1 2.370e-03 7.370e-03 2.370e-03 
*LOADS
*RC U696:B 3.493e-05
*END

*R_NET i_UART_DATA_RX\[7\] 4.740e-03
*DRIVER i_UART_DATA_RX\[7\]
*CELL NULL
*C2_R1_C1 2.370e-03 7.370e-03 2.370e-03 
*LOADS
*RC U697:B 3.493e-05
*END

*R_NET i_UART_DATA_RX\[6\] 4.740e-03
*DRIVER i_UART_DATA_RX\[6\]
*CELL NULL
*C2_R1_C1 2.370e-03 7.370e-03 2.370e-03 
*LOADS
*RC U698:B 3.493e-05
*END

*R_NET i_UART_DATA_RX\[5\] 4.740e-03
*DRIVER i_UART_DATA_RX\[5\]
*CELL NULL
*C2_R1_C1 2.370e-03 7.370e-03 2.370e-03 
*LOADS
*RC U699:B 3.493e-05
*END

*R_NET i_UART_DATA_RX\[4\] 4.740e-03
*DRIVER i_UART_DATA_RX\[4\]
*CELL NULL
*C2_R1_C1 2.370e-03 7.370e-03 2.370e-03 
*LOADS
*RC U700:B 3.493e-05
*END

*R_NET i_UART_DATA_RX\[3\] 4.740e-03
*DRIVER i_UART_DATA_RX\[3\]
*CELL NULL
*C2_R1_C1 2.370e-03 7.370e-03 2.370e-03 
*LOADS
*RC U701:B 3.493e-05
*END

*R_NET i_UART_DATA_RX\[2\] 4.740e-03
*DRIVER i_UART_DATA_RX\[2\]
*CELL NULL
*C2_R1_C1 2.370e-03 7.370e-03 2.370e-03 
*LOADS
*RC U702:B 3.493e-05
*END

*R_NET i_UART_DATA_RX\[1\] 4.740e-03
*DRIVER i_UART_DATA_RX\[1\]
*CELL NULL
*C2_R1_C1 2.370e-03 7.370e-03 2.370e-03 
*LOADS
*RC U703:B 3.493e-05
*END

*R_NET i_UART_DATA_RX\[0\] 4.740e-03
*DRIVER i_UART_DATA_RX\[0\]
*CELL NULL
*C2_R1_C1 2.370e-03 7.370e-03 2.370e-03 
*LOADS
*RC U704:B 3.493e-05
*END

*R_NET i_UART_DATA_RX_VALID 9.660e-03
*DRIVER i_UART_DATA_RX_VALID
*CELL NULL
*C2_R1_C1 4.830e-03 9.100e-03 4.830e-03 
*LOADS
*RC U22:A 8.791e-05
*RC U687:AN 8.791e-05
*END

*R_NET i_MPR121_DATA_OUT\[7\] 5.220e-03
*DRIVER i_MPR121_DATA_OUT\[7\]
*CELL NULL
*C2_R1_C1 2.610e-03 7.370e-03 2.610e-03 
*LOADS
*RC U584:A 3.847e-05
*END

*R_NET i_MPR121_DATA_OUT\[6\] 5.220e-03
*DRIVER i_MPR121_DATA_OUT\[6\]
*CELL NULL
*C2_R1_C1 2.610e-03 7.370e-03 2.610e-03 
*LOADS
*RC U586:A 3.847e-05
*END

*R_NET i_MPR121_DATA_OUT\[5\] 5.220e-03
*DRIVER i_MPR121_DATA_OUT\[5\]
*CELL NULL
*C2_R1_C1 2.610e-03 7.370e-03 2.610e-03 
*LOADS
*RC U588:A 3.847e-05
*END

*R_NET i_MPR121_DATA_OUT\[4\] 5.220e-03
*DRIVER i_MPR121_DATA_OUT\[4\]
*CELL NULL
*C2_R1_C1 2.610e-03 7.370e-03 2.610e-03 
*LOADS
*RC U590:A 3.847e-05
*END

*R_NET i_MPR121_DATA_OUT\[3\] 5.220e-03
*DRIVER i_MPR121_DATA_OUT\[3\]
*CELL NULL
*C2_R1_C1 2.610e-03 7.370e-03 2.610e-03 
*LOADS
*RC U592:A 3.847e-05
*END

*R_NET i_MPR121_DATA_OUT\[2\] 5.220e-03
*DRIVER i_MPR121_DATA_OUT\[2\]
*CELL NULL
*C2_R1_C1 2.610e-03 7.370e-03 2.610e-03 
*LOADS
*RC U594:A 3.847e-05
*END

*R_NET i_MPR121_DATA_OUT\[1\] 5.220e-03
*DRIVER i_MPR121_DATA_OUT\[1\]
*CELL NULL
*C2_R1_C1 2.610e-03 7.370e-03 2.610e-03 
*LOADS
*RC U596:A 3.847e-05
*END

*R_NET i_MPR121_DATA_OUT\[0\] 5.220e-03
*DRIVER i_MPR121_DATA_OUT\[0\]
*CELL NULL
*C2_R1_C1 2.610e-03 7.370e-03 2.610e-03 
*LOADS
*RC U598:A 3.847e-05
*END

*R_NET o_MPR121_REG_ADDR\[7\] 1.777e-02
*DRIVER o_MPR121_REG_ADDR_reg_7_:Q
*CELL fd4qd1_hd
*C2_R1_C1 8.885e-03 9.100e-03 8.885e-03 
*LOADS
*RC U1500:D0 1.617e-04
*RC o_MPR121_REG_ADDR\[7\] 1.617e-04
*END

*R_NET o_MPR121_REG_ADDR\[6\] 1.777e-02
*DRIVER o_MPR121_REG_ADDR_reg_6_:Q
*CELL fd4qd1_hd
*C2_R1_C1 8.885e-03 9.100e-03 8.885e-03 
*LOADS
*RC U1499:D0 1.617e-04
*RC o_MPR121_REG_ADDR\[6\] 1.617e-04
*END

*R_NET o_MPR121_REG_ADDR\[5\] 1.777e-02
*DRIVER o_MPR121_REG_ADDR_reg_5_:Q
*CELL fd4qd1_hd
*C2_R1_C1 8.885e-03 9.100e-03 8.885e-03 
*LOADS
*RC U1498:D0 1.617e-04
*RC o_MPR121_REG_ADDR\[5\] 1.617e-04
*END

*R_NET o_MPR121_REG_ADDR\[4\] 1.777e-02
*DRIVER o_MPR121_REG_ADDR_reg_4_:Q
*CELL fd4qd1_hd
*C2_R1_C1 8.885e-03 9.100e-03 8.885e-03 
*LOADS
*RC U1497:D0 1.617e-04
*RC o_MPR121_REG_ADDR\[4\] 1.617e-04
*END

*R_NET o_MPR121_REG_ADDR\[3\] 1.777e-02
*DRIVER o_MPR121_REG_ADDR_reg_3_:Q
*CELL fd4qd1_hd
*C2_R1_C1 8.885e-03 9.100e-03 8.885e-03 
*LOADS
*RC U1496:D0 1.617e-04
*RC o_MPR121_REG_ADDR\[3\] 1.617e-04
*END

*R_NET o_MPR121_REG_ADDR\[2\] 1.777e-02
*DRIVER o_MPR121_REG_ADDR_reg_2_:Q
*CELL fd4qd1_hd
*C2_R1_C1 8.885e-03 9.100e-03 8.885e-03 
*LOADS
*RC U1495:D0 1.617e-04
*RC o_MPR121_REG_ADDR\[2\] 1.617e-04
*END

*R_NET o_MPR121_REG_ADDR\[1\] 1.777e-02
*DRIVER o_MPR121_REG_ADDR_reg_1_:Q
*CELL fd4qd1_hd
*C2_R1_C1 8.885e-03 9.100e-03 8.885e-03 
*LOADS
*RC U1494:D0 1.617e-04
*RC o_MPR121_REG_ADDR\[1\] 1.617e-04
*END

*R_NET o_MPR121_REG_ADDR\[0\] 1.777e-02
*DRIVER o_MPR121_REG_ADDR_reg_0_:Q
*CELL fd4qd1_hd
*C2_R1_C1 8.885e-03 9.100e-03 8.885e-03 
*LOADS
*RC U1493:D0 1.617e-04
*RC o_MPR121_REG_ADDR\[0\] 1.617e-04
*END

*R_NET o_MPR121_DATA_IN\[7\] 1.777e-02
*DRIVER o_MPR121_DATA_IN_reg_7_:Q
*CELL fd4qd1_hd
*C2_R1_C1 8.885e-03 9.100e-03 8.885e-03 
*LOADS
*RC U1539:D0 1.617e-04
*RC o_MPR121_DATA_IN\[7\] 1.617e-04
*END

*R_NET o_MPR121_DATA_IN\[6\] 1.777e-02
*DRIVER o_MPR121_DATA_IN_reg_6_:Q
*CELL fd4qd1_hd
*C2_R1_C1 8.885e-03 9.100e-03 8.885e-03 
*LOADS
*RC U1538:D0 1.617e-04
*RC o_MPR121_DATA_IN\[6\] 1.617e-04
*END

*R_NET o_MPR121_DATA_IN\[4\] 1.777e-02
*DRIVER o_MPR121_DATA_IN_reg_4_:Q
*CELL fd4qd1_hd
*C2_R1_C1 8.885e-03 9.100e-03 8.885e-03 
*LOADS
*RC U1537:D0 1.617e-04
*RC o_MPR121_DATA_IN\[4\] 1.617e-04
*END

*R_NET o_MPR121_DATA_IN\[3\] 1.777e-02
*DRIVER o_MPR121_DATA_IN_reg_3_:Q
*CELL fd4qd1_hd
*C2_R1_C1 8.885e-03 9.100e-03 8.885e-03 
*LOADS
*RC U1536:D0 1.617e-04
*RC o_MPR121_DATA_IN\[3\] 1.617e-04
*END

*R_NET o_MPR121_DATA_IN\[2\] 1.777e-02
*DRIVER o_MPR121_DATA_IN_reg_2_:Q
*CELL fd4qd1_hd
*C2_R1_C1 8.885e-03 9.100e-03 8.885e-03 
*LOADS
*RC U1535:D0 1.617e-04
*RC o_MPR121_DATA_IN\[2\] 1.617e-04
*END

*R_NET o_MPR121_DATA_IN\[1\] 1.777e-02
*DRIVER o_MPR121_DATA_IN_reg_1_:Q
*CELL fd4qd1_hd
*C2_R1_C1 8.885e-03 9.100e-03 8.885e-03 
*LOADS
*RC U1534:D0 1.617e-04
*RC o_MPR121_DATA_IN\[1\] 1.617e-04
*END

*R_NET o_MPR121_DATA_IN\[0\] 1.777e-02
*DRIVER o_MPR121_DATA_IN_reg_0_:Q
*CELL fd4qd1_hd
*C2_R1_C1 8.885e-03 9.100e-03 8.885e-03 
*LOADS
*RC U1533:D0 1.617e-04
*RC o_MPR121_DATA_IN\[0\] 1.617e-04
*END

*R_NET o_MPR121_WRITE_ENABLE 1.777e-02
*DRIVER o_MPR121_WRITE_ENABLE_reg:Q
*CELL fd4qd1_hd
*C2_R1_C1 8.885e-03 9.100e-03 8.885e-03 
*LOADS
*RC U1426:D0 1.617e-04
*RC o_MPR121_WRITE_ENABLE 1.617e-04
*END

*R_NET o_MPR121_READ_ENABLE 1.777e-02
*DRIVER o_MPR121_READ_ENABLE_reg:Q
*CELL fd4qd1_hd
*C2_R1_C1 8.885e-03 9.100e-03 8.885e-03 
*LOADS
*RC U1429:D0 1.617e-04
*RC o_MPR121_READ_ENABLE 1.617e-04
*END

*R_NET i_MPR121_INIT_SET 5.200e-03
*DRIVER i_MPR121_INIT_SET
*CELL NULL
*C2_R1_C1 2.600e-03 7.370e-03 2.600e-03 
*LOADS
*RC U2051:A 3.832e-05
*END

*R_NET i_MPR121_BUSY 2.503e-02
*DRIVER i_MPR121_BUSY
*CELL NULL
*C2_R1_C1 1.252e-02 1.549e-02 1.252e-02 
*LOADS
*RC U1117:B 3.877e-04
*RC U1139:A 3.877e-04
*RC U1199:A 3.877e-04
*RC U1282:A 3.877e-04
*RC U2049:B 3.877e-04
*END

*R_NET i_MPR121_FAIL 8.790e-03
*DRIVER i_MPR121_FAIL
*CELL NULL
*C2_R1_C1 4.395e-03 9.100e-03 4.395e-03 
*LOADS
*RC U1138:A 7.999e-05
*RC U2049:A 7.999e-05
*END

*R_NET o_MPR121_ERROR 1.791e-02
*DRIVER o_MPR121_ERROR_reg:Q
*CELL fd4qd1_hd
*C2_R1_C1 8.955e-03 9.100e-03 8.955e-03 
*LOADS
*RC U7:B 1.630e-04
*RC o_MPR121_ERROR 1.630e-04
*END

*R_NET i_ADS1292_FILTERED_DATA_OUT\[23\] 4.590e-03
*DRIVER i_ADS1292_FILTERED_DATA_OUT\[23\]
*CELL NULL
*C2_R1_C1 2.295e-03 7.370e-03 2.295e-03 
*LOADS
*RC U400:A 3.383e-05
*END

*R_NET i_ADS1292_FILTERED_DATA_OUT\[22\] 4.590e-03
*DRIVER i_ADS1292_FILTERED_DATA_OUT\[22\]
*CELL NULL