*SPEF "IEEE 1481-1999"
*DESIGN "sensor_core"
*DATE "Wed May  6 15:35:27 2020"
*VENDOR "SYNOPSYS INC"
*PROGRAM "Synopsys Design Compiler cmos"
*VERSION "F-2011.09-SP5-3"
*DESIGN_FLOW "SYNTHESIS"
*DIVIDER /
*DELIMITER :
*BUS_DELIMITER []
*T_UNIT 1.0 NS
*C_UNIT 1.0 PF
*R_UNIT 1.0 KOHM
*L_UNIT 1.0 HENRY

*PORTS

o_UART_DATA_TX\[55\] O *L 1.035e-02 *S 1.582e-01 1.982e-01 
o_UART_DATA_TX\[54\] O *L 1.035e-02 *S 1.578e-01 1.978e-01 
o_UART_DATA_TX\[53\] O *L 1.035e-02 *S 1.586e-01 1.986e-01 
o_UART_DATA_TX\[52\] O *L 1.035e-02 *S 1.218e-01 8.281e-02 
o_UART_DATA_TX\[51\] O *L 1.035e-02 *S 1.578e-01 1.978e-01 
o_UART_DATA_TX\[50\] O *L 1.035e-02 *S 1.582e-01 1.982e-01 
o_UART_DATA_TX\[49\] O *L 1.035e-02 *S 1.582e-01 1.982e-01 
o_UART_DATA_TX\[48\] O *L 1.035e-02 *S 1.578e-01 1.978e-01 
o_UART_DATA_TX\[47\] O *L 1.035e-02 *S 1.578e-01 1.978e-01 
o_UART_DATA_TX\[46\] O *L 1.035e-02 *S 1.578e-01 1.978e-01 
o_UART_DATA_TX\[45\] O *L 1.035e-02 *S 1.578e-01 1.978e-01 
o_UART_DATA_TX\[44\] O *L 1.035e-02 *S 1.578e-01 1.978e-01 
o_UART_DATA_TX\[43\] O *L 1.035e-02 *S 1.578e-01 1.978e-01 
o_UART_DATA_TX\[42\] O *L 1.035e-02 *S 1.578e-01 1.978e-01 
o_UART_DATA_TX\[41\] O *L 1.035e-02 *S 1.578e-01 1.978e-01 
o_UART_DATA_TX\[40\] O *L 1.035e-02 *S 1.578e-01 1.978e-01 
o_UART_DATA_TX\[39\] O *L 1.035e-02 *S 1.578e-01 1.978e-01 
o_UART_DATA_TX\[38\] O *L 1.035e-02 *S 1.578e-01 1.978e-01 
o_UART_DATA_TX\[37\] O *L 1.035e-02 *S 1.578e-01 1.978e-01 
o_UART_DATA_TX\[36\] O *L 1.035e-02 *S 1.578e-01 1.978e-01 
o_UART_DATA_TX\[35\] O *L 1.035e-02 *S 1.578e-01 1.978e-01 
o_UART_DATA_TX\[34\] O *L 1.035e-02 *S 1.578e-01 1.978e-01 
o_UART_DATA_TX\[33\] O *L 1.035e-02 *S 1.578e-01 1.978e-01 
o_UART_DATA_TX\[32\] O *L 1.035e-02 *S 1.578e-01 1.978e-01 
o_UART_DATA_TX\[31\] O *L 1.035e-02 *S 1.574e-01 1.974e-01 
o_UART_DATA_TX\[30\] O *L 1.035e-02 *S 1.574e-01 1.974e-01 
o_UART_DATA_TX\[29\] O *L 1.035e-02 *S 1.574e-01 1.974e-01 
o_UART_DATA_TX\[28\] O *L 1.035e-02 *S 1.574e-01 1.974e-01 
o_UART_DATA_TX\[27\] O *L 1.035e-02 *S 1.574e-01 1.974e-01 
o_UART_DATA_TX\[26\] O *L 1.035e-02 *S 1.574e-01 1.974e-01 
o_UART_DATA_TX\[25\] O *L 1.035e-02 *S 1.574e-01 1.974e-01 
o_UART_DATA_TX\[24\] O *L 1.035e-02 *S 1.574e-01 1.974e-01 
o_UART_DATA_TX\[23\] O *L 1.035e-02 *S 1.218e-01 8.281e-02 
o_UART_DATA_TX\[22\] O *L 1.035e-02 *S 1.218e-01 8.281e-02 
o_UART_DATA_TX\[21\] O *L 1.035e-02 *S 1.218e-01 8.281e-02 
o_UART_DATA_TX\[20\] O *L 1.035e-02 *S 1.218e-01 8.281e-02 
o_UART_DATA_TX\[19\] O *L 1.035e-02 *S 1.574e-01 1.974e-01 
o_UART_DATA_TX\[18\] O *L 1.035e-02 *S 1.574e-01 1.974e-01 
o_UART_DATA_TX\[17\] O *L 1.035e-02 *S 1.574e-01 1.974e-01 
o_UART_DATA_TX\[16\] O *L 1.035e-02 *S 1.574e-01 1.974e-01 
o_UART_DATA_TX\[15\] O *L 1.035e-02 *S 1.574e-01 1.974e-01 
o_UART_DATA_TX\[14\] O *L 1.035e-02 *S 1.574e-01 1.974e-01 
o_UART_DATA_TX\[13\] O *L 1.035e-02 *S 1.574e-01 1.974e-01 
o_UART_DATA_TX\[12\] O *L 1.035e-02 *S 1.574e-01 1.974e-01 
o_UART_DATA_TX\[11\] O *L 1.035e-02 *S 1.574e-01 1.974e-01 
o_UART_DATA_TX\[10\] O *L 1.035e-02 *S 1.574e-01 1.974e-01 
o_UART_DATA_TX\[9\] O *L 1.035e-02 *S 1.574e-01 1.974e-01 
o_UART_DATA_TX\[8\] O *L 1.035e-02 *S 1.574e-01 1.974e-01 
o_UART_DATA_TX\[7\] O *L 1.035e-02 *S 1.582e-01 1.982e-01 
o_UART_DATA_TX\[6\] O *L 1.035e-02 *S 1.218e-01 8.281e-02 
o_UART_DATA_TX\[5\] O *L 1.035e-02 *S 1.582e-01 1.982e-01 
o_UART_DATA_TX\[4\] O *L 1.035e-02 *S 1.582e-01 1.982e-01 
o_UART_DATA_TX\[3\] O *L 1.035e-02 *S 1.582e-01 1.982e-01 
o_UART_DATA_TX\[2\] O *L 1.035e-02 *S 1.218e-01 8.281e-02 
o_UART_DATA_TX\[1\] O *L 1.035e-02 *S 1.582e-01 1.982e-01 
o_UART_DATA_TX\[0\] O *L 1.035e-02 *S 1.582e-01 1.982e-01 
o_UART_DATA_TX_VALID O *L 1.035e-02 *S 1.588e-01 1.988e-01 
i_UART_DATA_TX_READY I *L 0.000e+00 *S 0.000e+00 0.000e+00 
i_UART_DATA_RX\[15\] I *L 0.000e+00 *S 0.000e+00 0.000e+00 
i_UART_DATA_RX\[14\] I *L 0.000e+00 *S 0.000e+00 0.000e+00 
i_UART_DATA_RX\[13\] I *L 0.000e+00 *S 0.000e+00 0.000e+00 
i_UART_DATA_RX\[12\] I *L 0.000e+00 *S 0.000e+00 0.000e+00 
i_UART_DATA_RX\[11\] I *L 0.000e+00 *S 0.000e+00 0.000e+00 
i_UART_DATA_RX\[10\] I *L 0.000e+00 *S 0.000e+00 0.000e+00 
i_UART_DATA_RX\[9\] I *L 0.000e+00 *S 0.000e+00 0.000e+00 
i_UART_DATA_RX\[8\] I *L 0.000e+00 *S 0.000e+00 0.000e+00 
i_UART_DATA_RX\[7\] I *L 0.000e+00 *S 0.000e+00 0.000e+00 
i_UART_DATA_RX\[6\] I *L 0.000e+00 *S 0.000e+00 0.000e+00 
i_UART_DATA_RX\[5\] I *L 0.000e+00 *S 0.000e+00 0.000e+00 
i_UART_DATA_RX\[4\] I *L 0.000e+00 *S 0.000e+00 0.000e+00 
i_UART_DATA_RX\[3\] I *L 0.000e+00 *S 0.000e+00 0.000e+00 
i_UART_DATA_RX\[2\] I *L 0.000e+00 *S 0.000e+00 0.000e+00 
i_UART_DATA_RX\[1\] I *L 0.000e+00 *S 0.000e+00 0.000e+00 
i_UART_DATA_RX\[0\] I *L 0.000e+00 *S 0.000e+00 0.000e+00 
i_UART_DATA_RX_VALID I *L 0.000e+00 *S 0.000e+00 0.000e+00 
i_MPR121_DATA_OUT\[7\] I *L 0.000e+00 *S 0.000e+00 0.000e+00 
i_MPR121_DATA_OUT\[6\] I *L 0.000e+00 *S 0.000e+00 0.000e+00 
i_MPR121_DATA_OUT\[5\] I *L 0.000e+00 *S 0.000e+00 0.000e+00 
i_MPR121_DATA_OUT\[4\] I *L 0.000e+00 *S 0.000e+00 0.000e+00 
i_MPR121_DATA_OUT\[3\] I *L 0.000e+00 *S 0.000e+00 0.000e+00 
i_MPR121_DATA_OUT\[2\] I *L 0.000e+00 *S 0.000e+00 0.000e+00 
i_MPR121_DATA_OUT\[1\] I *L 0.000e+00 *S 0.000e+00 0.000e+00 
i_MPR121_DATA_OUT\[0\] I *L 0.000e+00 *S 0.000e+00 0.000e+00 
o_MPR121_REG_ADDR\[7\] O *L 1.035e-02 *S 1.581e-01 1.981e-01 
o_MPR121_REG_ADDR\[6\] O *L 1.035e-02 *S 1.583e-01 1.982e-01 
o_MPR121_REG_ADDR\[5\] O *L 1.035e-02 *S 1.583e-01 1.982e-01 
o_MPR121_REG_ADDR\[4\] O *L 1.035e-02 *S 1.583e-01 1.982e-01 
o_MPR121_REG_ADDR\[3\] O *L 1.035e-02 *S 1.619e-01 2.020e-01 
o_MPR121_REG_ADDR\[2\] O *L 1.035e-02 *S 1.583e-01 1.982e-01 
o_MPR121_REG_ADDR\[1\] O *L 1.035e-02 *S 1.619e-01 2.020e-01 
o_MPR121_REG_ADDR\[0\] O *L 1.035e-02 *S 1.619e-01 2.020e-01 
o_MPR121_DATA_IN\[7\] O *L 1.035e-02 *S 1.574e-01 1.974e-01 
o_MPR121_DATA_IN\[6\] O *L 1.035e-02 *S 1.574e-01 1.974e-01 
o_MPR121_DATA_IN\[5\] O *L 1.035e-02 *S 1.218e-01 8.281e-02 
o_MPR121_DATA_IN\[4\] O *L 1.035e-02 *S 1.574e-01 1.974e-01 
o_MPR121_DATA_IN\[3\] O *L 1.035e-02 *S 1.574e-01 1.974e-01 
o_MPR121_DATA_IN\[2\] O *L 1.035e-02 *S 1.574e-01 1.974e-01 
o_MPR121_DATA_IN\[1\] O *L 1.035e-02 *S 1.574e-01 1.974e-01 
o_MPR121_DATA_IN\[0\] O *L 1.035e-02 *S 1.574e-01 1.974e-01 
o_MPR121_WRITE_ENABLE O *L 1.035e-02 *S 1.560e-01 1.959e-01 
o_MPR121_READ_ENABLE O *L 1.035e-02 *S 1.578e-01 1.978e-01 
i_MPR121_INIT_SET I *L 0.000e+00 *S 0.000e+00 0.000e+00 
i_MPR121_BUSY I *L 0.000e+00 *S 0.000e+00 0.000e+00 
i_MPR121_FAIL I *L 0.000e+00 *S 0.000e+00 0.000e+00 
o_MPR121_TOUCH_STATUS\[11\] O *L 1.035e-02 *S 1.573e-01 1.973e-01 
o_MPR121_TOUCH_STATUS\[10\] O *L 1.035e-02 *S 1.573e-01 1.973e-01 
o_MPR121_TOUCH_STATUS\[9\] O *L 1.035e-02 *S 1.573e-01 1.973e-01 
o_MPR121_TOUCH_STATUS\[8\] O *L 1.035e-02 *S 1.573e-01 1.973e-01 
o_MPR121_TOUCH_STATUS\[7\] O *L 1.035e-02 *S 1.583e-01 1.982e-01 
o_MPR121_TOUCH_STATUS\[6\] O *L 1.035e-02 *S 1.583e-01 1.982e-01 
o_MPR121_TOUCH_STATUS\[5\] O *L 1.035e-02 *S 1.583e-01 1.982e-01 
o_MPR121_TOUCH_STATUS\[4\] O *L 1.035e-02 *S 1.583e-01 1.982e-01 
o_MPR121_TOUCH_STATUS\[3\] O *L 1.035e-02 *S 1.583e-01 1.982e-01 
o_MPR121_TOUCH_STATUS\[2\] O *L 1.035e-02 *S 1.583e-01 1.982e-01 
o_MPR121_TOUCH_STATUS\[1\] O *L 1.035e-02 *S 1.583e-01 1.982e-01 
o_MPR121_TOUCH_STATUS\[0\] O *L 1.035e-02 *S 1.573e-01 1.973e-01 
o_MPR121_ERROR O *L 1.035e-02 *S 1.586e-01 1.986e-01 
i_ADS1292_FILTERED_DATA_OUT\[23\] I *L 0.000e+00 *S 0.000e+00 0.000e+00 
i_ADS1292_FILTERED_DATA_OUT\[22\] I *L 0.000e+00 *S 0.000e+00 0.000e+00 
i_ADS1292_FILTERED_DATA_OUT\[21\] I *L 0.000e+00 *S 0.000e+00 0.000e+00 
i_ADS1292_FILTERED_DATA_OUT\[20\] I *L 0.000e+00 *S 0.000e+00 0.000e+00 
i_ADS1292_FILTERED_DATA_OUT\[19\] I *L 0.000e+00 *S 0.000e+00 0.000e+00 
i_ADS1292_FILTERED_DATA_OUT\[18\] I *L 0.000e+00 *S 0.000e+00 0.000e+00 
i_ADS1292_FILTERED_DATA_OUT\[17\] I *L 0.000e+00 *S 0.000e+00 0.000e+00 
i_ADS1292_FILTERED_DATA_OUT\[16\] I *L 0.000e+00 *S 0.000e+00 0.000e+00 
i_ADS1292_FILTERED_DATA_OUT\[15\] I *L 0.000e+00 *S 0.000e+00 0.000e+00 
i_ADS1292_FILTERED_DATA_OUT\[14\] I *L 0.000e+00 *S 0.000e+00 0.000e+00 
i_ADS1292_FILTERED_DATA_OUT\[13\] I *L 0.000e+00 *S 0.000e+00 0.000e+00 
i_ADS1292_FILTERED_DATA_OUT\[12\] I *L 0.000e+00 *S 0.000e+00 0.000e+00 
i_ADS1292_FILTERED_DATA_OUT\[11\] I *L 0.000e+00 *S 0.000e+00 0.000e+00 
i_ADS1292_FILTERED_DATA_OUT\[10\] I *L 0.000e+00 *S 0.000e+00 0.000e+00 
i_ADS1292_FILTERED_DATA_OUT\[9\] I *L 0.000e+00 *S 0.000e+00 0.000e+00 
i_ADS1292_FILTERED_DATA_OUT\[8\] I *L 0.000e+00 *S 0.000e+00 0.000e+00 
i_ADS1292_FILTERED_DATA_OUT\[7\] I *L 0.000e+00 *S 0.000e+00 0.000e+00 
i_ADS1292_FILTERED_DATA_OUT\[6\] I *L 0.000e+00 *S 0.000e+00 0.000e+00 
i_ADS1292_FILTERED_DATA_OUT\[5\] I *L 0.000e+00 *S 0.000e+00 0.000e+00 
i_ADS1292_FILTERED_DATA_OUT\[4\] I *L 0.000e+00 *S 0.000e+00 0.000e+00 
i_ADS1292_FILTERED_DATA_OUT\[3\] I *L 0.000e+00 *S 0.000e+00 0.000e+00 
i_ADS1292_FILTERED_DATA_OUT\[2\] I *L 0.000e+00 *S 0.000e+00 0.000e+00 
i_ADS1292_FILTERED_DATA_OUT\[1\] I *L 0.000e+00 *S 0.000e+00 0.000e+00 
i_ADS1292_FILTERED_DATA_OUT\[0\] I *L 0.000e+00 *S 0.000e+00 0.000e+00 
o_ADS1292_CONTROL\[2\] O *L 1.035e-02 *S 1.578e-01 1.978e-01 
o_ADS1292_CONTROL\[1\] O *L 1.035e-02 *S 1.576e-01 1.976e-01 
o_ADS1292_CONTROL\[0\] O *L 1.035e-02 *S 1.617e-01 2.017e-01 
o_ADS1292_COMMAND\[7\] O *L 1.035e-02 *S 1.218e-01 8.281e-02 
o_ADS1292_COMMAND\[6\] O *L 1.035e-02 *S 1.218e-01 8.281e-02 
o_ADS1292_COMMAND\[5\] O *L 1.035e-02 *S 1.218e-01 8.281e-02 
o_ADS1292_COMMAND\[4\] O *L 1.035e-02 *S 1.218e-01 8.281e-02 
o_ADS1292_COMMAND\[3\] O *L 1.035e-02 *S 1.218e-01 8.281e-02 
o_ADS1292_COMMAND\[2\] O *L 1.035e-02 *S 1.218e-01 8.281e-02 
o_ADS1292_COMMAND\[1\] O *L 1.035e-02 *S 1.218e-01 8.281e-02 
o_ADS1292_COMMAND\[0\] O *L 1.035e-02 *S 1.218e-01 8.281e-02 
o_ADS1292_REG_ADDR\[7\] O *L 1.035e-02 *S 1.581e-01 1.981e-01 
o_ADS1292_REG_ADDR\[6\] O *L 1.035e-02 *S 1.581e-01 1.981e-01 
o_ADS1292_REG_ADDR\[5\] O *L 1.035e-02 *S 1.583e-01 1.982e-01 
o_ADS1292_REG_ADDR\[4\] O *L 1.035e-02 *S 1.581e-01 1.981e-01 
o_ADS1292_REG_ADDR\[3\] O *L 1.035e-02 *S 1.583e-01 1.982e-01 
o_ADS1292_REG_ADDR\[2\] O *L 1.035e-02 *S 1.583e-01 1.982e-01 
o_ADS1292_REG_ADDR\[1\] O *L 1.035e-02 *S 1.583e-01 1.982e-01 
o_ADS1292_REG_ADDR\[0\] O *L 1.035e-02 *S 1.583e-01 1.982e-01 
o_ADS1292_DATA_IN\[7\] O *L 1.035e-02 *S 1.574e-01 1.974e-01 
o_ADS1292_DATA_IN\[6\] O *L 1.035e-02 *S 1.574e-01 1.974e-01 
o_ADS1292_DATA_IN\[5\] O *L 1.035e-02 *S 1.574e-01 1.974e-01 
o_ADS1292_DATA_IN\[4\] O *L 1.035e-02 *S 1.574e-01 1.974e-01 
o_ADS1292_DATA_IN\[3\] O *L 1.035e-02 *S 1.574e-01 1.974e-01 
o_ADS1292_DATA_IN\[2\] O *L 1.035e-02 *S 1.574e-01 1.974e-01 
o_ADS1292_DATA_IN\[1\] O *L 1.035e-02 *S 1.568e-01 1.968e-01 
o_ADS1292_DATA_IN\[0\] O *L 1.035e-02 *S 1.574e-01 1.974e-01 
i_ADS1292_INIT_SET I *L 0.000e+00 *S 0.000e+00 0.000e+00 
i_ADS1292_FILTERED_DATA_VALID I *L 0.000e+00 *S 0.000e+00 0.000e+00 
o_ADS1292_FILTERED_DATA_ACK O *L 1.035e-02 *S 1.588e-01 1.988e-01 
i_ADS1292_BUSY I *L 0.000e+00 *S 0.000e+00 0.000e+00 
o_CHIP_SET O *L 1.035e-02 *S 2.100e-01 2.448e-01 
o_RUN_SET O *L 1.035e-02 *S 2.075e-01 1.677e-01 
o_CORE_BUSY O *L 1.035e-02 *S 1.249e-01 1.641e-01 
i_CLK I *L 0.000e+00 *S 0.000e+00 0.000e+00 
i_RST I *L 0.000e+00 *S 0.000e+00 0.000e+00 

*R_NET o_UART_DATA_TX\[55\] 1.749e-02
*DRIVER o_UART_DATA_TX_reg_55_:Q
*CELL fd2qd1_hd
*C2_R1_C1 8.745e-03 9.100e-03 8.745e-03 
*LOADS
*RC U1488:A 1.592e-04
*RC o_UART_DATA_TX\[55\] 1.592e-04
*END

*R_NET o_UART_DATA_TX\[54\] 1.745e-02
*DRIVER o_UART_DATA_TX_reg_54_:Q
*CELL fd2qd1_hd
*C2_R1_C1 8.725e-03 9.100e-03 8.725e-03 
*LOADS
*RC U1619:A 1.588e-04
*RC o_UART_DATA_TX\[54\] 1.588e-04
*END

*R_NET o_UART_DATA_TX\[53\] 1.754e-02
*DRIVER o_UART_DATA_TX_reg_53_:Q
*CELL fd2qd1_hd
*C2_R1_C1 8.770e-03 9.100e-03 8.770e-03 
*LOADS
*RC U1526:AN 1.596e-04
*RC o_UART_DATA_TX\[53\] 1.596e-04
*END

*R_NET o_UART_DATA_TX\[51\] 1.745e-02
*DRIVER o_UART_DATA_TX_reg_51_:Q
*CELL fd2qd1_hd
*C2_R1_C1 8.725e-03 9.100e-03 8.725e-03 
*LOADS
*RC U1620:A 1.588e-04
*RC o_UART_DATA_TX\[51\] 1.588e-04
*END

*R_NET o_UART_DATA_TX\[50\] 1.749e-02
*DRIVER o_UART_DATA_TX_reg_50_:Q
*CELL fd2qd1_hd
*C2_R1_C1 8.745e-03 9.100e-03 8.745e-03 
*LOADS
*RC U1470:A 1.592e-04
*RC o_UART_DATA_TX\[50\] 1.592e-04
*END

*R_NET o_UART_DATA_TX\[49\] 1.749e-02
*DRIVER o_UART_DATA_TX_reg_49_:Q
*CELL fd2qd1_hd
*C2_R1_C1 8.745e-03 9.100e-03 8.745e-03 
*LOADS
*RC U1486:A 1.592e-04
*RC o_UART_DATA_TX\[49\] 1.592e-04
*END

*R_NET o_UART_DATA_TX\[48\] 1.745e-02
*DRIVER o_UART_DATA_TX_reg_48_:Q
*CELL fd2qd1_hd
*C2_R1_C1 8.725e-03 9.100e-03 8.725e-03 
*LOADS
*RC U1618:A 1.588e-04
*RC o_UART_DATA_TX\[48\] 1.588e-04
*END

*R_NET o_UART_DATA_TX\[47\] 1.745e-02
*DRIVER o_UART_DATA_TX_reg_47_:Q
*CELL fd2qd1_hd
*C2_R1_C1 8.725e-03 9.100e-03 8.725e-03 
*LOADS
*RC U1718:B 1.588e-04
*RC o_UART_DATA_TX\[47\] 1.588e-04
*END

*R_NET o_UART_DATA_TX\[46\] 1.745e-02
*DRIVER o_UART_DATA_TX_reg_46_:Q
*CELL fd2qd1_hd
*C2_R1_C1 8.725e-03 9.100e-03 8.725e-03 
*LOADS
*RC U1717:B 1.588e-04
*RC o_UART_DATA_TX\[46\] 1.588e-04
*END

*R_NET o_UART_DATA_TX\[45\] 1.745e-02
*DRIVER o_UART_DATA_TX_reg_45_:Q
*CELL fd2qd1_hd
*C2_R1_C1 8.725e-03 9.100e-03 8.725e-03 
*LOADS
*RC U1716:B 1.588e-04
*RC o_UART_DATA_TX\[45\] 1.588e-04
*END

*R_NET o_UART_DATA_TX\[44\] 1.745e-02
*DRIVER o_UART_DATA_TX_reg_44_:Q
*CELL fd2qd1_hd
*C2_R1_C1 8.725e-03 9.100e-03 8.725e-03 
*LOADS
*RC U1715:B 1.588e-04
*RC o_UART_DATA_TX\[44\] 1.588e-04
*END

*R_NET o_UART_DATA_TX\[43\] 1.745e-02
*DRIVER o_UART_DATA_TX_reg_43_:Q
*CELL fd2qd1_hd
*C2_R1_C1 8.725e-03 9.100e-03 8.725e-03 
*LOADS
*RC U1714:B 1.588e-04
*RC o_UART_DATA_TX\[43\] 1.588e-04
*END

*R_NET o_UART_DATA_TX\[42\] 1.745e-02
*DRIVER o_UART_DATA_TX_reg_42_:Q
*CELL fd2qd1_hd
*C2_R1_C1 8.725e-03 9.100e-03 8.725e-03 
*LOADS
*RC U1713:B 1.588e-04
*RC o_UART_DATA_TX\[42\] 1.588e-04
*END

*R_NET o_UART_DATA_TX\[41\] 1.745e-02
*DRIVER o_UART_DATA_TX_reg_41_:Q
*CELL fd2qd1_hd
*C2_R1_C1 8.725e-03 9.100e-03 8.725e-03 
*LOADS
*RC U1712:B 1.588e-04
*RC o_UART_DATA_TX\[41\] 1.588e-04
*END

*R_NET o_UART_DATA_TX\[40\] 1.745e-02
*DRIVER o_UART_DATA_TX_reg_40_:Q
*CELL fd2qd1_hd
*C2_R1_C1 8.725e-03 9.100e-03 8.725e-03 
*LOADS
*RC U1711:B 1.588e-04
*RC o_UART_DATA_TX\[40\] 1.588e-04
*END

*R_NET o_UART_DATA_TX\[39\] 1.745e-02
*DRIVER o_UART_DATA_TX_reg_39_:Q
*CELL fd2qd1_hd
*C2_R1_C1 8.725e-03 9.100e-03 8.725e-03 
*LOADS
*RC U1710:B 1.588e-04
*RC o_UART_DATA_TX\[39\] 1.588e-04
*END

*R_NET o_UART_DATA_TX\[38\] 1.745e-02
*DRIVER o_UART_DATA_TX_reg_38_:Q
*CELL fd2qd1_hd
*C2_R1_C1 8.725e-03 9.100e-03 8.725e-03 
*LOADS
*RC U1709:B 1.588e-04
*RC o_UART_DATA_TX\[38\] 1.588e-04
*END

*R_NET o_UART_DATA_TX\[37\] 1.745e-02
*DRIVER o_UART_DATA_TX_reg_37_:Q
*CELL fd2qd1_hd
*C2_R1_C1 8.725e-03 9.100e-03 8.725e-03 
*LOADS
*RC U1708:B 1.588e-04
*RC o_UART_DATA_TX\[37\] 1.588e-04
*END

*R_NET o_UART_DATA_TX\[36\] 1.745e-02
*DRIVER o_UART_DATA_TX_reg_36_:Q
*CELL fd2qd1_hd
*C2_R1_C1 8.725e-03 9.100e-03 8.725e-03 
*LOADS
*RC U1707:B 1.588e-04
*RC o_UART_DATA_TX\[36\] 1.588e-04
*END

*R_NET o_UART_DATA_TX\[35\] 1.745e-02
*DRIVER o_UART_DATA_TX_reg_35_:Q
*CELL fd2qd1_hd
*C2_R1_C1 8.725e-03 9.100e-03 8.725e-03 
*LOADS
*RC U1706:B 1.588e-04
*RC o_UART_DATA_TX\[35\] 1.588e-04
*END

*R_NET o_UART_DATA_TX\[34\] 1.745e-02
*DRIVER o_UART_DATA_TX_reg_34_:Q
*CELL fd2qd1_hd
*C2_R1_C1 8.725e-03 9.100e-03 8.725e-03 
*LOADS
*RC U1705:B 1.588e-04
*RC o_UART_DATA_TX\[34\] 1.588e-04
*END

*R_NET o_UART_DATA_TX\[33\] 1.745e-02
*DRIVER o_UART_DATA_TX_reg_33_:Q
*CELL fd2qd1_hd
*C2_R1_C1 8.725e-03 9.100e-03 8.725e-03 
*LOADS
*RC U1704:B 1.588e-04
*RC o_UART_DATA_TX\[33\] 1.588e-04
*END

*R_NET o_UART_DATA_TX\[32\] 1.745e-02
*DRIVER o_UART_DATA_TX_reg_32_:Q
*CELL fd2qd1_hd
*C2_R1_C1 8.725e-03 9.100e-03 8.725e-03 
*LOADS
*RC U1703:B 1.588e-04
*RC o_UART_DATA_TX\[32\] 1.588e-04
*END

*R_NET o_UART_DATA_TX\[31\] 1.740e-02
*DRIVER o_UART_DATA_TX_reg_31_:Q
*CELL fd2qd1_hd
*C2_R1_C1 8.700e-03 9.100e-03 8.700e-03 
*LOADS
*RC U1267:C 1.583e-04
*RC o_UART_DATA_TX\[31\] 1.583e-04
*END

*R_NET o_UART_DATA_TX\[30\] 1.740e-02
*DRIVER o_UART_DATA_TX_reg_30_:Q
*CELL fd2qd1_hd
*C2_R1_C1 8.700e-03 9.100e-03 8.700e-03 
*LOADS
*RC U1263:C 1.583e-04
*RC o_UART_DATA_TX\[30\] 1.583e-04
*END

*R_NET o_UART_DATA_TX\[29\] 1.740e-02
*DRIVER o_UART_DATA_TX_reg_29_:Q
*CELL fd2qd1_hd
*C2_R1_C1 8.700e-03 9.100e-03 8.700e-03 
*LOADS
*RC U1272:C 1.583e-04
*RC o_UART_DATA_TX\[29\] 1.583e-04
*END

*R_NET o_UART_DATA_TX\[28\] 1.740e-02
*DRIVER o_UART_DATA_TX_reg_28_:Q
*CELL fd2qd1_hd
*C2_R1_C1 8.700e-03 9.100e-03 8.700e-03 
*LOADS
*RC U1258:C 1.583e-04
*RC o_UART_DATA_TX\[28\] 1.583e-04
*END

*R_NET o_UART_DATA_TX\[27\] 1.740e-02
*DRIVER o_UART_DATA_TX_reg_27_:Q
*CELL fd2qd1_hd
*C2_R1_C1 8.700e-03 9.100e-03 8.700e-03 
*LOADS
*RC U1256:C 1.583e-04
*RC o_UART_DATA_TX\[27\] 1.583e-04
*END

*R_NET o_UART_DATA_TX\[26\] 1.740e-02
*DRIVER o_UART_DATA_TX_reg_26_:Q
*CELL fd2qd1_hd
*C2_R1_C1 8.700e-03 9.100e-03 8.700e-03 
*LOADS
*RC U1269:C 1.583e-04
*RC o_UART_DATA_TX\[26\] 1.583e-04
*END

*R_NET o_UART_DATA_TX\[25\] 1.740e-02
*DRIVER o_UART_DATA_TX_reg_25_:Q
*CELL fd2qd1_hd
*C2_R1_C1 8.700e-03 9.100e-03 8.700e-03 
*LOADS
*RC U1270:C 1.583e-04
*RC o_UART_DATA_TX\[25\] 1.583e-04
*END

*R_NET o_UART_DATA_TX\[24\] 1.740e-02
*DRIVER o_UART_DATA_TX_reg_24_:Q
*CELL fd2qd1_hd
*C2_R1_C1 8.700e-03 9.100e-03 8.700e-03 
*LOADS
*RC U1265:C 1.583e-04
*RC o_UART_DATA_TX\[24\] 1.583e-04
*END

*R_NET o_UART_DATA_TX\[19\] 1.740e-02
*DRIVER o_UART_DATA_TX_reg_19_:Q
*CELL fd2qd1_hd
*C2_R1_C1 8.700e-03 9.100e-03 8.700e-03 
*LOADS
*RC U1274:C 1.583e-04
*RC o_UART_DATA_TX\[19\] 1.583e-04
*END

*R_NET o_UART_DATA_TX\[18\] 1.740e-02
*DRIVER o_UART_DATA_TX_reg_18_:Q
*CELL fd2qd1_hd
*C2_R1_C1 8.700e-03 9.100e-03 8.700e-03 
*LOADS
*RC U1259:C 1.583e-04
*RC o_UART_DATA_TX\[18\] 1.583e-04
*END

*R_NET o_UART_DATA_TX\[17\] 1.740e-02
*DRIVER o_UART_DATA_TX_reg_17_:Q
*CELL fd2qd1_hd
*C2_R1_C1 8.700e-03 9.100e-03 8.700e-03 
*LOADS
*RC U1255:C 1.583e-04
*RC o_UART_DATA_TX\[17\] 1.583e-04
*END

*R_NET o_UART_DATA_TX\[16\] 1.740e-02
*DRIVER o_UART_DATA_TX_reg_16_:Q
*CELL fd2qd1_hd
*C2_R1_C1 8.700e-03 9.100e-03 8.700e-03 
*LOADS
*RC U1273:C 1.583e-04
*RC o_UART_DATA_TX\[16\] 1.583e-04
*END

*R_NET o_UART_DATA_TX\[15\] 1.740e-02
*DRIVER o_UART_DATA_TX_reg_15_:Q
*CELL fd2qd1_hd
*C2_R1_C1 8.700e-03 9.100e-03 8.700e-03 
*LOADS
*RC U1260:C 1.583e-04
*RC o_UART_DATA_TX\[15\] 1.583e-04
*END

*R_NET o_UART_DATA_TX\[14\] 1.740e-02
*DRIVER o_UART_DATA_TX_reg_14_:Q
*CELL fd2qd1_hd
*C2_R1_C1 8.700e-03 9.100e-03 8.700e-03 
*LOADS
*RC U1268:C 1.583e-04
*RC o_UART_DATA_TX\[14\] 1.583e-04
*END

*R_NET o_UART_DATA_TX\[13\] 1.740e-02
*DRIVER o_UART_DATA_TX_reg_13_:Q
*CELL fd2qd1_hd
*C2_R1_C1 8.700e-03 9.100e-03 8.700e-03 
*LOADS
*RC U1262:C 1.583e-04
*RC o_UART_DATA_TX\[13\] 1.583e-04
*END

*R_NET o_UART_DATA_TX\[12\] 1.740e-02
*DRIVER o_UART_DATA_TX_reg_12_:Q
*CELL fd2qd1_hd
*C2_R1_C1 8.700e-03 9.100e-03 8.700e-03 
*LOADS
*RC U1271:C 1.583e-04
*RC o_UART_DATA_TX\[12\] 1.583e-04
*END

*R_NET o_UART_DATA_TX\[11\] 1.740e-02
*DRIVER o_UART_DATA_TX_reg_11_:Q
*CELL fd2qd1_hd
*C2_R1_C1 8.700e-03 9.100e-03 8.700e-03 
*LOADS
*RC U1257:C 1.583e-04
*RC o_UART_DATA_TX\[11\] 1.583e-04
*END

*R_NET o_UART_DATA_TX\[10\] 1.740e-02
*DRIVER o_UART_DATA_TX_reg_10_:Q
*CELL fd2qd1_hd
*C2_R1_C1 8.700e-03 9.100e-03 8.700e-03 
*LOADS
*RC U1264:C 1.583e-04
*RC o_UART_DATA_TX\[10\] 1.583e-04
*END

*R_NET o_UART_DATA_TX\[9\] 1.740e-02
*DRIVER o_UART_DATA_TX_reg_9_:Q
*CELL fd2qd1_hd
*C2_R1_C1 8.700e-03 9.100e-03 8.700e-03 
*LOADS
*RC U1261:C 1.583e-04
*RC o_UART_DATA_TX\[9\] 1.583e-04
*END

*R_NET o_UART_DATA_TX\[8\] 1.740e-02
*DRIVER o_UART_DATA_TX_reg_8_:Q
*CELL fd2qd1_hd
*C2_R1_C1 8.700e-03 9.100e-03 8.700e-03 
*LOADS
*RC U1266:C 1.583e-04
*RC o_UART_DATA_TX\[8\] 1.583e-04
*END

*R_NET o_UART_DATA_TX\[7\] 1.749e-02
*DRIVER o_UART_DATA_TX_reg_7_:Q
*CELL fd2qd1_hd
*C2_R1_C1 8.745e-03 9.100e-03 8.745e-03 
*LOADS
*RC U1617:A 1.592e-04
*RC o_UART_DATA_TX\[7\] 1.592e-04
*END

*R_NET o_UART_DATA_TX\[5\] 1.749e-02
*DRIVER o_UART_DATA_TX_reg_5_:Q
*CELL fd2qd1_hd
*C2_R1_C1 8.745e-03 9.100e-03 8.745e-03 
*LOADS
*RC U1484:A 1.592e-04
*RC o_UART_DATA_TX\[5\] 1.592e-04
*END

*R_NET o_UART_DATA_TX\[4\] 1.749e-02
*DRIVER o_UART_DATA_TX_reg_4_:Q
*CELL fd2qd1_hd
*C2_R1_C1 8.745e-03 9.100e-03 8.745e-03 
*LOADS
*RC U1616:A 1.592e-04
*RC o_UART_DATA_TX\[4\] 1.592e-04
*END

*R_NET o_UART_DATA_TX\[3\] 1.749e-02
*DRIVER o_UART_DATA_TX_reg_3_:Q
*CELL fd2qd1_hd
*C2_R1_C1 8.745e-03 9.100e-03 8.745e-03 
*LOADS
*RC U1615:A 1.592e-04
*RC o_UART_DATA_TX\[3\] 1.592e-04
*END

*R_NET o_UART_DATA_TX\[1\] 1.749e-02
*DRIVER o_UART_DATA_TX_reg_1_:Q
*CELL fd2qd1_hd
*C2_R1_C1 8.745e-03 9.100e-03 8.745e-03 
*LOADS
*RC U1485:A 1.592e-04
*RC o_UART_DATA_TX\[1\] 1.592e-04
*END

*R_NET o_UART_DATA_TX\[0\] 1.749e-02
*DRIVER o_UART_DATA_TX_reg_0_:Q
*CELL fd2qd1_hd
*C2_R1_C1 8.745e-03 9.100e-03 8.745e-03 
*LOADS
*RC U1487:A 1.592e-04
*RC o_UART_DATA_TX\[0\] 1.592e-04
*END

*R_NET o_UART_DATA_TX_VALID 1.756e-02
*DRIVER o_UART_DATA_TX_VALID_reg:Q
*CELL fd2qd1_hd
*C2_R1_C1 8.780e-03 9.100e-03 8.780e-03 
*LOADS
*RC U1614:A 1.598e-04
*RC o_UART_DATA_TX_VALID 1.598e-04
*END

*R_NET i_UART_DATA_TX_READY 5.190e-03
*DRIVER i_UART_DATA_TX_READY
*CELL NULL
*C2_R1_C1 2.595e-03 7.370e-03 2.595e-03 
*LOADS
*RC U1086:B 3.825e-05
*END

*R_NET i_UART_DATA_RX\[15\] 5.750e-03
*DRIVER i_UART_DATA_RX\[15\]
*CELL NULL
*C2_R1_C1 2.875e-03 7.370e-03 2.875e-03 
*LOADS
*RC U1720:A 4.238e-05
*END

*R_NET i_UART_DATA_RX\[14\] 4.670e-03
*DRIVER i_UART_DATA_RX\[14\]
*CELL NULL
*C2_R1_C1 2.335e-03 7.370e-03 2.335e-03 
*LOADS
*RC U1280:D 3.442e-05
*END

*R_NET i_UART_DATA_RX\[13\] 4.670e-03
*DRIVER i_UART_DATA_RX\[13\]
*CELL NULL
*C2_R1_C1 2.335e-03 7.370e-03 2.335e-03 
*LOADS
*RC U1279:D 3.442e-05
*END

*R_NET i_UART_DATA_RX\[12\] 4.670e-03
*DRIVER i_UART_DATA_RX\[12\]
*CELL NULL
*C2_R1_C1 2.335e-03 7.370e-03 2.335e-03 
*LOADS
*RC U1278:D 3.442e-05
*END

*R_NET i_UART_DATA_RX\[11\] 4.670e-03
*DRIVER i_UART_DATA_RX\[11\]
*CELL NULL
*C2_R1_C1 2.335e-03 7.370e-03 2.335e-03 
*LOADS
*RC U1283:D 3.442e-05
*END

*R_NET i_UART_DATA_RX\[10\] 4.670e-03
*DRIVER i_UART_DATA_RX\[10\]
*CELL NULL
*C2_R1_C1 2.335e-03 7.370e-03 2.335e-03 
*LOADS
*RC U1282:D 3.442e-05
*END

*R_NET i_UART_DATA_RX\[9\] 4.670e-03
*DRIVER i_UART_DATA_RX\[9\]
*CELL NULL
*C2_R1_C1 2.335e-03 7.370e-03 2.335e-03 
*LOADS
*RC U1277:D 3.442e-05
*END

*R_NET i_UART_DATA_RX\[8\] 4.670e-03
*DRIVER i_UART_DATA_RX\[8\]
*CELL NULL
*C2_R1_C1 2.335e-03 7.370e-03 2.335e-03 
*LOADS
*RC U1281:D 3.442e-05
*END

*R_NET i_UART_DATA_RX\[7\] 5.750e-03
*DRIVER i_UART_DATA_RX\[7\]
*CELL NULL
*C2_R1_C1 2.875e-03 7.370e-03 2.875e-03 
*LOADS
*RC U1721:A 4.238e-05
*END

*R_NET i_UART_DATA_RX\[6\] 5.750e-03
*DRIVER i_UART_DATA_RX\[6\]
*CELL NULL
*C2_R1_C1 2.875e-03 7.370e-03 2.875e-03 
*LOADS
*RC U1722:A 4.238e-05
*END

*R_NET i_UART_DATA_RX\[5\] 5.750e-03
*DRIVER i_UART_DATA_RX\[5\]
*CELL NULL
*C2_R1_C1 2.875e-03 7.370e-03 2.875e-03 
*LOADS
*RC U1723:A 4.238e-05
*END

*R_NET i_UART_DATA_RX\[4\] 5.750e-03
*DRIVER i_UART_DATA_RX\[4\]
*CELL NULL
*C2_R1_C1 2.875e-03 7.370e-03 2.875e-03 
*LOADS
*RC U1724:A 4.238e-05
*END

*R_NET i_UART_DATA_RX\[3\] 5.750e-03
*DRIVER i_UART_DATA_RX\[3\]
*CELL NULL
*C2_R1_C1 2.875e-03 7.370e-03 2.875e-03 
*LOADS
*RC U1725:A 4.238e-05
*END

*R_NET i_UART_DATA_RX\[2\] 5.750e-03
*DRIVER i_UART_DATA_RX\[2\]
*CELL NULL
*C2_R1_C1 2.875e-03 7.370e-03 2.875e-03 
*LOADS
*RC U1726:A 4.238e-05
*END

*R_NET i_UART_DATA_RX\[1\] 5.750e-03
*DRIVER i_UART_DATA_RX\[1\]
*CELL NULL
*C2_R1_C1 2.875e-03 7.370e-03 2.875e-03 
*LOADS
*RC U1727:A 4.238e-05
*END

*R_NET i_UART_DATA_RX\[0\] 5.750e-03
*DRIVER i_UART_DATA_RX\[0\]
*CELL NULL
*C2_R1_C1 2.875e-03 7.370e-03 2.875e-03 
*LOADS
*RC U1728:A 4.238e-05
*END

*R_NET i_UART_DATA_RX_VALID 1.018e-02
*DRIVER i_UART_DATA_RX_VALID
*CELL NULL
*C2_R1_C1 5.090e-03 9.100e-03 5.090e-03 
*LOADS
*RC U1105:A 9.264e-05
*RC U1445:B 9.264e-05
*END

*R_NET i_MPR121_DATA_OUT\[7\] 1.373e-02
*DRIVER i_MPR121_DATA_OUT\[7\]
*CELL NULL
*C2_R1_C1 6.865e-03 9.460e-03 6.865e-03 
*LOADS
*RC U1210:D 1.299e-04
*RC U1217:D 1.299e-04
*RC U1398:A 1.299e-04
*END

*R_NET i_MPR121_DATA_OUT\[6\] 1.373e-02
*DRIVER i_MPR121_DATA_OUT\[6\]
*CELL NULL
*C2_R1_C1 6.865e-03 9.460e-03 6.865e-03 
*LOADS
*RC U1209:D 1.299e-04
*RC U1216:D 1.299e-04
*RC U1399:A 1.299e-04
*END

*R_NET i_MPR121_DATA_OUT\[5\] 1.373e-02
*DRIVER i_MPR121_DATA_OUT\[5\]
*CELL NULL
*C2_R1_C1 6.865e-03 9.460e-03 6.865e-03 
*LOADS
*RC U1215:D 1.299e-04
*RC U1218:D 1.299e-04
*RC U1400:A 1.299e-04
*END

*R_NET i_MPR121_DATA_OUT\[4\] 1.373e-02
*DRIVER i_MPR121_DATA_OUT\[4\]
*CELL NULL
*C2_R1_C1 6.865e-03 9.460e-03 6.865e-03 
*LOADS
*RC U1208:D 1.299e-04
*RC U1214:D 1.299e-04
*RC U1401:A 1.299e-04
*END

*R_NET i_MPR121_DATA_OUT\[3\] 2.300e-02
*DRIVER i_MPR121_DATA_OUT\[3\]
*CELL NULL
*C2_R1_C1 1.150e-02 1.549e-02 1.150e-02 
*LOADS
*RC U1207:D 3.563e-04
*RC U1213:D 3.563e-04
*RC U1346:A 3.563e-04
*RC U1342:A 3.563e-04
*RC U1402:A 3.563e-04
*END

*R_NET i_MPR121_DATA_OUT\[2\] 2.300e-02
*DRIVER i_MPR121_DATA_OUT\[2\]
*CELL NULL
*C2_R1_C1 1.150e-02 1.549e-02 1.150e-02 
*LOADS
*RC U1206:D 3.563e-04
*RC U1212:D 3.563e-04
*RC U1347:A 3.563e-04
*RC U1343:A 3.563e-04
*RC U1403:A 3.563e-04
*END

*R_NET i_MPR121_DATA_OUT\[1\] 2.300e-02
*DRIVER i_MPR121_DATA_OUT\[1\]
*CELL NULL
*C2_R1_C1 1.150e-02 1.549e-02 1.150e-02 
*LOADS
*RC U1204:D 3.563e-04
*RC U1211:D 3.563e-04
*RC U1348:A 3.563e-04
*RC U1344:A 3.563e-04
*RC U1404:A 3.563e-04
*END

*R_NET i_MPR121_DATA_OUT\[0\] 2.312e-02
*DRIVER i_MPR121_DATA_OUT\[0\]
*CELL NULL
*C2_R1_C1 1.156e-02 1.549e-02 1.156e-02 
*LOADS
*RC U1219:A 3.581e-04
*RC U1220:A 3.581e-04
*RC U1349:A 3.581e-04
*RC U1345:A 3.581e-04
*RC U1405:A 3.581e-04
*END

*R_NET o_MPR121_REG_ADDR\[7\] 1.748e-02
*DRIVER o_MPR121_REG_ADDR_reg_7_:Q
*CELL fd2qd1_hd
*C2_R1_C1 8.740e-03 9.100e-03 8.740e-03 
*LOADS
*RC U1377:B 1.591e-04
*RC o_MPR121_REG_ADDR\[7\] 1.591e-04
*END

*R_NET o_MPR121_REG_ADDR\[6\] 1.750e-02
*DRIVER o_MPR121_REG_ADDR_reg_6_:Q
*CELL fd2qd1_hd
*C2_R1_C1 8.750e-03 9.100e-03 8.750e-03 
*LOADS
*RC U1381:B 1.593e-04
*RC o_MPR121_REG_ADDR\[6\] 1.593e-04
*END

*R_NET o_MPR121_REG_ADDR\[5\] 1.750e-02
*DRIVER o_MPR121_REG_ADDR_reg_5_:Q
*CELL fd2qd1_hd
*C2_R1_C1 8.750e-03 9.100e-03 8.750e-03 
*LOADS
*RC U1380:B 1.593e-04
*RC o_MPR121_REG_ADDR\[5\] 1.593e-04
*END

*R_NET o_MPR121_REG_ADDR\[4\] 1.750e-02
*DRIVER o_MPR121_REG_ADDR_reg_4_:Q
*CELL fd2qd1_hd
*C2_R1_C1 8.750e-03 9.100e-03 8.750e-03 
*LOADS
*RC U1379:B 1.593e-04
*RC o_MPR121_REG_ADDR\[4\] 1.593e-04
*END

*R_NET o_MPR121_REG_ADDR\[3\] 1.794e-02
*DRIVER o_MPR121_REG_ADDR_reg_3_:Q
*CELL fd2qd1_hd
*C2_R1_C1 8.970e-03 9.100e-03 8.970e-03 
*LOADS
*RC U1655:A 1.633e-04
*RC o_MPR121_REG_ADDR\[3\] 1.633e-04
*END

*R_NET o_MPR121_REG_ADDR\[2\] 1.750e-02
*DRIVER o_MPR121_REG_ADDR_reg_2_:Q
*CELL fd2qd1_hd
*C2_R1_C1 8.750e-03 9.100e-03 8.750e-03 
*LOADS
*RC U1378:B 1.593e-04
*RC o_MPR121_REG_ADDR\[2\] 1.593e-04
*END

*R_NET o_MPR121_REG_ADDR\[1\] 1.794e-02
*DRIVER o_MPR121_REG_ADDR_reg_1_:Q
*CELL fd2qd1_hd
*C2_R1_C1 8.970e-03 9.100e-03 8.970e-03 
*LOADS
*RC U1641:A 1.633e-04
*RC o_MPR121_REG_ADDR\[1\] 1.633e-04
*END

*R_NET o_MPR121_REG_ADDR\[0\] 1.794e-02
*DRIVER o_MPR121_REG_ADDR_reg_0_:Q
*CELL fd2qd1_hd
*C2_R1_C1 8.970e-03 9.100e-03 8.970e-03 
*LOADS
*RC U1639:A 1.633e-04
*RC o_MPR121_REG_ADDR\[0\] 1.633e-04
*END

*R_NET o_MPR121_DATA_IN\[7\] 1.740e-02
*DRIVER o_MPR121_DATA_IN_reg_7_:Q
*CELL fd2qd1_hd
*C2_R1_C1 8.700e-03 9.100e-03 8.700e-03 
*LOADS
*RC U1351:C 1.583e-04
*RC o_MPR121_DATA_IN\[7\] 1.583e-04
*END

*R_NET o_MPR121_DATA_IN\[6\] 1.740e-02
*DRIVER o_MPR121_DATA_IN_reg_6_:Q
*CELL fd2qd1_hd
*C2_R1_C1 8.700e-03 9.100e-03 8.700e-03 
*LOADS
*RC U1352:C 1.583e-04
*RC o_MPR121_DATA_IN\[6\] 1.583e-04
*END

*R_NET o_MPR121_DATA_IN\[4\] 1.740e-02
*DRIVER o_MPR121_DATA_IN_reg_4_:Q
*CELL fd2qd1_hd
*C2_R1_C1 8.700e-03 9.100e-03 8.700e-03 
*LOADS
*RC U1353:C 1.583e-04
*RC o_MPR121_DATA_IN\[4\] 1.583e-04
*END

*R_NET o_MPR121_DATA_IN\[3\] 1.740e-02
*DRIVER o_MPR121_DATA_IN_reg_3_:Q
*CELL fd2qd1_hd
*C2_R1_C1 8.700e-03 9.100e-03 8.700e-03 
*LOADS
*RC U1356:C 1.583e-04
*RC o_MPR121_DATA_IN\[3\] 1.583e-04
*END

*R_NET o_MPR121_DATA_IN\[2\] 1.740e-02
*DRIVER o_MPR121_DATA_IN_reg_2_:Q
*CELL fd2qd1_hd
*C2_R1_C1 8.700e-03 9.100e-03 8.700e-03 
*LOADS
*RC U1355:C 1.583e-04
*RC o_MPR121_DATA_IN\[2\] 1.583e-04
*END

*R_NET o_MPR121_DATA_IN\[1\] 1.740e-02
*DRIVER o_MPR121_DATA_IN_reg_1_:Q
*CELL fd2qd1_hd
*C2_R1_C1 8.700e-03 9.100e-03 8.700e-03 
*LOADS
*RC U1357:C 1.583e-04
*RC o_MPR121_DATA_IN\[1\] 1.583e-04
*END

*R_NET o_MPR121_DATA_IN\[0\] 1.740e-02
*DRIVER o_MPR121_DATA_IN_reg_0_:Q
*CELL fd2qd1_hd
*C2_R1_C1 8.700e-03 9.100e-03 8.700e-03 
*LOADS
*RC U1354:C 1.583e-04
*RC o_MPR121_DATA_IN\[0\] 1.583e-04
*END

*R_NET o_MPR121_WRITE_ENABLE 1.723e-02
*DRIVER o_MPR121_WRITE_ENABLE_reg:Q
*CELL fd2qd1_hd
*C2_R1_C1 8.615e-03 9.100e-03 8.615e-03 
*LOADS
*RC U1465:B 1.568e-04
*RC o_MPR121_WRITE_ENABLE 1.568e-04
*END

*R_NET o_MPR121_READ_ENABLE 1.745e-02
*DRIVER o_MPR121_READ_ENABLE_reg:Q
*CELL fd2qd1_hd
*C2_R1_C1 8.725e-03 9.100e-03 8.725e-03 
*LOADS
*RC U1467:B 1.588e-04
*RC o_MPR121_READ_ENABLE 1.588e-04
*END

*R_NET i_MPR121_INIT_SET 5.630e-03
*DRIVER i_MPR121_INIT_SET
*CELL NULL
*C2_R1_C1 2.815e-03 7.370e-03 2.815e-03 
*LOADS
*RC U1539:B 4.149e-05
*END

*R_NET i_MPR121_BUSY 1.008e-02
*DRIVER i_MPR121_BUSY
*CELL NULL
*C2_R1_C1 5.040e-03 9.100e-03 5.040e-03 
*LOADS
*RC U1476:A 9.173e-05
*RC U1499:B 9.173e-05
*END

*R_NET i_MPR121_FAIL 9.930e-03
*DRIVER i_MPR121_FAIL
*CELL NULL
*C2_R1_C1 4.965e-03 9.100e-03 4.965e-03 
*LOADS
*RC U1115:B 9.036e-05
*RC U1499:A 9.036e-05
*END

*R_NET o_MPR121_TOUCH_STATUS\[11\] 1.739e-02
*DRIVER o_MPR121_TOUCH_STATUS_reg_11_:Q
*CELL fd2qd1_hd
*C2_R1_C1 8.695e-03 9.100e-03 8.695e-03 
*LOADS
*RC U1346:D 1.582e-04
*RC o_MPR121_TOUCH_STATUS\[11\] 1.582e-04
*END

*R_NET o_MPR121_TOUCH_STATUS\[10\] 1.739e-02
*DRIVER o_MPR121_TOUCH_STATUS_reg_10_:Q
*CELL fd2qd1_hd