*SPEF "IEEE 1481-1999"
*DESIGN "converter_f2i"
*DATE "Mon May  4 15:16:40 2020"
*VENDOR "SYNOPSYS INC"
*PROGRAM "Synopsys Design Compiler cmos"
*VERSION "F-2011.09-SP5-3"
*DESIGN_FLOW "SYNTHESIS"
*DIVIDER /
*DELIMITER :
*BUS_DELIMITER []
*T_UNIT 1.0 NS
*C_UNIT 1.0 PF
*R_UNIT 1.0 KOHM
*L_UNIT 1.0 HENRY

*PORTS

i_A\[31\] I *L 0.000e+00 *S 0.000e+00 0.000e+00 
i_A\[30\] I *L 0.000e+00 *S 0.000e+00 0.000e+00 
i_A\[29\] I *L 0.000e+00 *S 0.000e+00 0.000e+00 
i_A\[28\] I *L 0.000e+00 *S 0.000e+00 0.000e+00 
i_A\[27\] I *L 0.000e+00 *S 0.000e+00 0.000e+00 
i_A\[26\] I *L 0.000e+00 *S 0.000e+00 0.000e+00 
i_A\[25\] I *L 0.000e+00 *S 0.000e+00 0.000e+00 
i_A\[24\] I *L 0.000e+00 *S 0.000e+00 0.000e+00 
i_A\[23\] I *L 0.000e+00 *S 0.000e+00 0.000e+00 
i_A\[22\] I *L 0.000e+00 *S 0.000e+00 0.000e+00 
i_A\[21\] I *L 0.000e+00 *S 0.000e+00 0.000e+00 
i_A\[20\] I *L 0.000e+00 *S 0.000e+00 0.000e+00 
i_A\[19\] I *L 0.000e+00 *S 0.000e+00 0.000e+00 
i_A\[18\] I *L 0.000e+00 *S 0.000e+00 0.000e+00 
i_A\[17\] I *L 0.000e+00 *S 0.000e+00 0.000e+00 
i_A\[16\] I *L 0.000e+00 *S 0.000e+00 0.000e+00 
i_A\[15\] I *L 0.000e+00 *S 0.000e+00 0.000e+00 
i_A\[14\] I *L 0.000e+00 *S 0.000e+00 0.000e+00 
i_A\[13\] I *L 0.000e+00 *S 0.000e+00 0.000e+00 
i_A\[12\] I *L 0.000e+00 *S 0.000e+00 0.000e+00 
i_A\[11\] I *L 0.000e+00 *S 0.000e+00 0.000e+00 
i_A\[10\] I *L 0.000e+00 *S 0.000e+00 0.000e+00 
i_A\[9\] I *L 0.000e+00 *S 0.000e+00 0.000e+00 
i_A\[8\] I *L 0.000e+00 *S 0.000e+00 0.000e+00 
i_A\[7\] I *L 0.000e+00 *S 0.000e+00 0.000e+00 
i_A\[6\] I *L 0.000e+00 *S 0.000e+00 0.000e+00 
i_A\[5\] I *L 0.000e+00 *S 0.000e+00 0.000e+00 
i_A\[4\] I *L 0.000e+00 *S 0.000e+00 0.000e+00 
i_A\[3\] I *L 0.000e+00 *S 0.000e+00 0.000e+00 
i_A\[2\] I *L 0.000e+00 *S 0.000e+00 0.000e+00 
i_A\[1\] I *L 0.000e+00 *S 0.000e+00 0.000e+00 
i_A\[0\] I *L 0.000e+00 *S 0.000e+00 0.000e+00 
i_A_STB I *L 0.000e+00 *S 0.000e+00 0.000e+00 
o_A_ACK O *L 0.000e+00 *S 1.228e-01 1.071e-01 
o_Z\[31\] O *L 0.000e+00 *S 3.355e-02 2.976e-02 
o_Z\[30\] O *L 0.000e+00 *S 3.355e-02 2.976e-02 
o_Z\[29\] O *L 0.000e+00 *S 3.355e-02 2.976e-02 
o_Z\[28\] O *L 0.000e+00 *S 3.355e-02 2.976e-02 
o_Z\[27\] O *L 0.000e+00 *S 3.355e-02 2.976e-02 
o_Z\[26\] O *L 0.000e+00 *S 3.355e-02 2.976e-02 
o_Z\[25\] O *L 0.000e+00 *S 3.355e-02 2.976e-02 
o_Z\[24\] O *L 0.000e+00 *S 3.355e-02 2.976e-02 
o_Z\[23\] O *L 0.000e+00 *S 3.355e-02 2.976e-02 
o_Z\[22\] O *L 0.000e+00 *S 3.355e-02 2.976e-02 
o_Z\[21\] O *L 0.000e+00 *S 3.355e-02 2.976e-02 
o_Z\[20\] O *L 0.000e+00 *S 3.355e-02 2.976e-02 
o_Z\[19\] O *L 0.000e+00 *S 3.355e-02 2.976e-02 
o_Z\[18\] O *L 0.000e+00 *S 3.355e-02 2.976e-02 
o_Z\[17\] O *L 0.000e+00 *S 3.355e-02 2.976e-02 
o_Z\[16\] O *L 0.000e+00 *S 3.355e-02 2.976e-02 
o_Z\[15\] O *L 0.000e+00 *S 3.355e-02 2.976e-02 
o_Z\[14\] O *L 0.000e+00 *S 3.355e-02 2.976e-02 
o_Z\[13\] O *L 0.000e+00 *S 3.355e-02 2.976e-02 
o_Z\[12\] O *L 0.000e+00 *S 3.355e-02 2.976e-02 
o_Z\[11\] O *L 0.000e+00 *S 3.355e-02 2.976e-02 
o_Z\[10\] O *L 0.000e+00 *S 3.355e-02 2.976e-02 
o_Z\[9\] O *L 0.000e+00 *S 3.355e-02 2.976e-02 
o_Z\[8\] O *L 0.000e+00 *S 3.355e-02 2.976e-02 
o_Z\[7\] O *L 0.000e+00 *S 3.355e-02 2.976e-02 
o_Z\[6\] O *L 0.000e+00 *S 3.355e-02 2.976e-02 
o_Z\[5\] O *L 0.000e+00 *S 3.355e-02 2.976e-02 
o_Z\[4\] O *L 0.000e+00 *S 3.355e-02 2.976e-02 
o_Z\[3\] O *L 0.000e+00 *S 3.355e-02 2.976e-02 
o_Z\[2\] O *L 0.000e+00 *S 3.355e-02 2.976e-02 
o_Z\[1\] O *L 0.000e+00 *S 3.355e-02 2.976e-02 
o_Z\[0\] O *L 0.000e+00 *S 3.355e-02 2.976e-02 
o_Z_STB O *L 0.000e+00 *S 1.320e-01 1.136e-01 
i_Z_ACK I *L 0.000e+00 *S 0.000e+00 0.000e+00 
i_CLK I *L 0.000e+00 *S 0.000e+00 0.000e+00 
i_RST I *L 0.000e+00 *S 0.000e+00 0.000e+00 

*R_NET i_A\[31\] 4.500e-03
*DRIVER i_A\[31\]
*CELL NULL
*C2_R1_C1 2.250e-03 7.370e-03 2.250e-03 
*LOADS
*RC a_reg_31_:D 3.316e-05
*END

*R_NET i_A\[30\] 4.500e-03
*DRIVER i_A\[30\]
*CELL NULL
*C2_R1_C1 2.250e-03 7.370e-03 2.250e-03 
*LOADS
*RC a_reg_30_:D 3.316e-05
*END

*R_NET i_A\[29\] 4.500e-03
*DRIVER i_A\[29\]
*CELL NULL
*C2_R1_C1 2.250e-03 7.370e-03 2.250e-03 
*LOADS
*RC a_reg_29_:D 3.316e-05
*END

*R_NET i_A\[28\] 4.500e-03
*DRIVER i_A\[28\]
*CELL NULL
*C2_R1_C1 2.250e-03 7.370e-03 2.250e-03 
*LOADS
*RC a_reg_28_:D 3.316e-05
*END

*R_NET i_A\[27\] 4.500e-03
*DRIVER i_A\[27\]
*CELL NULL
*C2_R1_C1 2.250e-03 7.370e-03 2.250e-03 
*LOADS
*RC a_reg_27_:D 3.316e-05
*END

*R_NET i_A\[26\] 4.500e-03
*DRIVER i_A\[26\]
*CELL NULL
*C2_R1_C1 2.250e-03 7.370e-03 2.250e-03 
*LOADS
*RC a_reg_26_:D 3.316e-05
*END

*R_NET i_A\[25\] 4.500e-03
*DRIVER i_A\[25\]
*CELL NULL
*C2_R1_C1 2.250e-03 7.370e-03 2.250e-03 
*LOADS
*RC a_reg_25_:D 3.316e-05
*END

*R_NET i_A\[24\] 4.500e-03
*DRIVER i_A\[24\]
*CELL NULL
*C2_R1_C1 2.250e-03 7.370e-03 2.250e-03 
*LOADS
*RC a_reg_24_:D 3.316e-05
*END

*R_NET i_A\[23\] 4.500e-03
*DRIVER i_A\[23\]
*CELL NULL
*C2_R1_C1 2.250e-03 7.370e-03 2.250e-03 
*LOADS
*RC a_reg_23_:D 3.316e-05
*END

*R_NET i_A\[22\] 4.500e-03
*DRIVER i_A\[22\]
*CELL NULL
*C2_R1_C1 2.250e-03 7.370e-03 2.250e-03 
*LOADS
*RC a_reg_22_:D 3.316e-05
*END

*R_NET i_A\[21\] 4.500e-03
*DRIVER i_A\[21\]
*CELL NULL
*C2_R1_C1 2.250e-03 7.370e-03 2.250e-03 
*LOADS
*RC a_reg_21_:D 3.316e-05
*END

*R_NET i_A\[20\] 4.500e-03
*DRIVER i_A\[20\]
*CELL NULL
*C2_R1_C1 2.250e-03 7.370e-03 2.250e-03 
*LOADS
*RC a_reg_20_:D 3.316e-05
*END

*R_NET i_A\[19\] 4.500e-03
*DRIVER i_A\[19\]
*CELL NULL
*C2_R1_C1 2.250e-03 7.370e-03 2.250e-03 
*LOADS
*RC a_reg_19_:D 3.316e-05
*END

*R_NET i_A\[18\] 4.500e-03
*DRIVER i_A\[18\]
*CELL NULL
*C2_R1_C1 2.250e-03 7.370e-03 2.250e-03 
*LOADS
*RC a_reg_18_:D 3.316e-05
*END

*R_NET i_A\[17\] 4.500e-03
*DRIVER i_A\[17\]
*CELL NULL
*C2_R1_C1 2.250e-03 7.370e-03 2.250e-03 
*LOADS
*RC a_reg_17_:D 3.316e-05
*END

*R_NET i_A\[16\] 4.500e-03
*DRIVER i_A\[16\]
*CELL NULL
*C2_R1_C1 2.250e-03 7.370e-03 2.250e-03 
*LOADS
*RC a_reg_16_:D 3.316e-05
*END

*R_NET i_A\[15\] 4.500e-03
*DRIVER i_A\[15\]
*CELL NULL
*C2_R1_C1 2.250e-03 7.370e-03 2.250e-03 
*LOADS
*RC a_reg_15_:D 3.316e-05
*END

*R_NET i_A\[14\] 4.500e-03
*DRIVER i_A\[14\]
*CELL NULL
*C2_R1_C1 2.250e-03 7.370e-03 2.250e-03 
*LOADS
*RC a_reg_14_:D 3.316e-05
*END

*R_NET i_A\[13\] 4.500e-03
*DRIVER i_A\[13\]
*CELL NULL
*C2_R1_C1 2.250e-03 7.370e-03 2.250e-03 
*LOADS
*RC a_reg_13_:D 3.316e-05
*END

*R_NET i_A\[12\] 4.500e-03
*DRIVER i_A\[12\]
*CELL NULL
*C2_R1_C1 2.250e-03 7.370e-03 2.250e-03 
*LOADS
*RC a_reg_12_:D 3.316e-05
*END

*R_NET i_A\[11\] 4.500e-03
*DRIVER i_A\[11\]
*CELL NULL
*C2_R1_C1 2.250e-03 7.370e-03 2.250e-03 
*LOADS
*RC a_reg_11_:D 3.316e-05
*END

*R_NET i_A\[10\] 4.500e-03
*DRIVER i_A\[10\]
*CELL NULL
*C2_R1_C1 2.250e-03 7.370e-03 2.250e-03 
*LOADS
*RC a_reg_10_:D 3.316e-05
*END

*R_NET i_A\[9\] 4.500e-03
*DRIVER i_A\[9\]
*CELL NULL
*C2_R1_C1 2.250e-03 7.370e-03 2.250e-03 
*LOADS
*RC a_reg_9_:D 3.316e-05
*END

*R_NET i_A\[8\] 4.500e-03
*DRIVER i_A\[8\]
*CELL NULL
*C2_R1_C1 2.250e-03 7.370e-03 2.250e-03 
*LOADS
*RC a_reg_8_:D 3.316e-05
*END

*R_NET i_A\[7\] 4.500e-03
*DRIVER i_A\[7\]
*CELL NULL
*C2_R1_C1 2.250e-03 7.370e-03 2.250e-03 
*LOADS
*RC a_reg_7_:D 3.316e-05
*END

*R_NET i_A\[6\] 4.500e-03
*DRIVER i_A\[6\]
*CELL NULL
*C2_R1_C1 2.250e-03 7.370e-03 2.250e-03 
*LOADS
*RC a_reg_6_:D 3.316e-05
*END

*R_NET i_A\[5\] 4.500e-03
*DRIVER i_A\[5\]
*CELL NULL
*C2_R1_C1 2.250e-03 7.370e-03 2.250e-03 
*LOADS
*RC a_reg_5_:D 3.316e-05
*END

*R_NET i_A\[4\] 4.500e-03
*DRIVER i_A\[4\]
*CELL NULL
*C2_R1_C1 2.250e-03 7.370e-03 2.250e-03 
*LOADS
*RC a_reg_4_:D 3.316e-05
*END

*R_NET i_A\[3\] 4.500e-03
*DRIVER i_A\[3\]
*CELL NULL
*C2_R1_C1 2.250e-03 7.370e-03 2.250e-03 
*LOADS
*RC a_reg_3_:D 3.316e-05
*END

*R_NET i_A\[2\] 4.500e-03
*DRIVER i_A\[2\]
*CELL NULL
*C2_R1_C1 2.250e-03 7.370e-03 2.250e-03 
*LOADS
*RC a_reg_2_:D 3.316e-05
*END

*R_NET i_A\[1\] 4.500e-03
*DRIVER i_A\[1\]
*CELL NULL
*C2_R1_C1 2.250e-03 7.370e-03 2.250e-03 
*LOADS
*RC a_reg_1_:D 3.316e-05
*END

*R_NET i_A\[0\] 4.500e-03
*DRIVER i_A\[0\]
*CELL NULL
*C2_R1_C1 2.250e-03 7.370e-03 2.250e-03 
*LOADS
*RC a_reg_0_:D 3.316e-05
*END

*R_NET i_A_STB 5.630e-03
*DRIVER i_A_STB
*CELL NULL
*C2_R1_C1 2.815e-03 7.370e-03 2.815e-03 
*LOADS
*RC U364:B 4.149e-05
*END

*R_NET o_A_ACK 1.329e-02
*DRIVER o_A_ACK_reg:Q
*CELL fd1qd1_hd
*C2_R1_C1 6.645e-03 9.460e-03 6.645e-03 
*LOADS
*RC U407:B 1.257e-04
*RC U364:C 1.257e-04
*RC o_A_ACK 1.257e-04
*END

*R_NET o_Z\[31\] 3.150e-03
*DRIVER o_Z_reg_31_:Q
*CELL fd1eqd1_hd
*C2_R1_C1 1.575e-03 7.370e-03 1.575e-03 
*LOADS
*RC o_Z\[31\] 2.322e-05
*END

*R_NET o_Z\[30\] 3.150e-03
*DRIVER o_Z_reg_30_:Q
*CELL fd1eqd1_hd
*C2_R1_C1 1.575e-03 7.370e-03 1.575e-03 
*LOADS
*RC o_Z\[30\] 2.322e-05
*END

*R_NET o_Z\[29\] 3.150e-03
*DRIVER o_Z_reg_29_:Q
*CELL fd1eqd1_hd
*C2_R1_C1 1.575e-03 7.370e-03 1.575e-03 
*LOADS
*RC o_Z\[29\] 2.322e-05
*END

*R_NET o_Z\[28\] 3.150e-03
*DRIVER o_Z_reg_28_:Q
*CELL fd1eqd1_hd
*C2_R1_C1 1.575e-03 7.370e-03 1.575e-03 
*LOADS
*RC o_Z\[28\] 2.322e-05
*END

*R_NET o_Z\[27\] 3.150e-03
*DRIVER o_Z_reg_27_:Q
*CELL fd1eqd1_hd
*C2_R1_C1 1.575e-03 7.370e-03 1.575e-03 
*LOADS
*RC o_Z\[27\] 2.322e-05
*END

*R_NET o_Z\[26\] 3.150e-03
*DRIVER o_Z_reg_26_:Q
*CELL fd1eqd1_hd
*C2_R1_C1 1.575e-03 7.370e-03 1.575e-03 
*LOADS
*RC o_Z\[26\] 2.322e-05
*END

*R_NET o_Z\[25\] 3.150e-03
*DRIVER o_Z_reg_25_:Q
*CELL fd1eqd1_hd
*C2_R1_C1 1.575e-03 7.370e-03 1.575e-03 
*LOADS
*RC o_Z\[25\] 2.322e-05
*END

*R_NET o_Z\[24\] 3.150e-03
*DRIVER o_Z_reg_24_:Q
*CELL fd1eqd1_hd
*C2_R1_C1 1.575e-03 7.370e-03 1.575e-03 
*LOADS
*RC o_Z\[24\] 2.322e-05
*END

*R_NET o_Z\[23\] 3.150e-03
*DRIVER o_Z_reg_23_:Q
*CELL fd1eqd1_hd
*C2_R1_C1 1.575e-03 7.370e-03 1.575e-03 
*LOADS
*RC o_Z\[23\] 2.322e-05
*END

*R_NET o_Z\[22\] 3.150e-03
*DRIVER o_Z_reg_22_:Q
*CELL fd1eqd1_hd
*C2_R1_C1 1.575e-03 7.370e-03 1.575e-03 
*LOADS
*RC o_Z\[22\] 2.322e-05
*END

*R_NET o_Z\[21\] 3.150e-03
*DRIVER o_Z_reg_21_:Q
*CELL fd1eqd1_hd
*C2_R1_C1 1.575e-03 7.370e-03 1.575e-03 
*LOADS
*RC o_Z\[21\] 2.322e-05
*END

*R_NET o_Z\[20\] 3.150e-03
*DRIVER o_Z_reg_20_:Q
*CELL fd1eqd1_hd
*C2_R1_C1 1.575e-03 7.370e-03 1.575e-03 
*LOADS
*RC o_Z\[20\] 2.322e-05
*END

*R_NET o_Z\[19\] 3.150e-03
*DRIVER o_Z_reg_19_:Q
*CELL fd1eqd1_hd
*C2_R1_C1 1.575e-03 7.370e-03 1.575e-03 
*LOADS
*RC o_Z\[19\] 2.322e-05
*END

*R_NET o_Z\[18\] 3.150e-03
*DRIVER o_Z_reg_18_:Q
*CELL fd1eqd1_hd
*C2_R1_C1 1.575e-03 7.370e-03 1.575e-03 
*LOADS
*RC o_Z\[18\] 2.322e-05
*END

*R_NET o_Z\[17\] 3.150e-03
*DRIVER o_Z_reg_17_:Q
*CELL fd1eqd1_hd
*C2_R1_C1 1.575e-03 7.370e-03 1.575e-03 
*LOADS
*RC o_Z\[17\] 2.322e-05
*END

*R_NET o_Z\[16\] 3.150e-03
*DRIVER o_Z_reg_16_:Q
*CELL fd1eqd1_hd
*C2_R1_C1 1.575e-03 7.370e-03 1.575e-03 
*LOADS
*RC o_Z\[16\] 2.322e-05
*END

*R_NET o_Z\[15\] 3.150e-03
*DRIVER o_Z_reg_15_:Q
*CELL fd1eqd1_hd
*C2_R1_C1 1.575e-03 7.370e-03 1.575e-03 
*LOADS
*RC o_Z\[15\] 2.322e-05
*END

*R_NET o_Z\[14\] 3.150e-03
*DRIVER o_Z_reg_14_:Q
*CELL fd1eqd1_hd
*C2_R1_C1 1.575e-03 7.370e-03 1.575e-03 
*LOADS
*RC o_Z\[14\] 2.322e-05
*END

*R_NET o_Z\[13\] 3.150e-03
*DRIVER o_Z_reg_13_:Q
*CELL fd1eqd1_hd
*C2_R1_C1 1.575e-03 7.370e-03 1.575e-03 
*LOADS
*RC o_Z\[13\] 2.322e-05
*END

*R_NET o_Z\[12\] 3.150e-03
*DRIVER o_Z_reg_12_:Q
*CELL fd1eqd1_hd
*C2_R1_C1 1.575e-03 7.370e-03 1.575e-03 
*LOADS
*RC o_Z\[12\] 2.322e-05
*END

*R_NET o_Z\[11\] 3.150e-03
*DRIVER o_Z_reg_11_:Q
*CELL fd1eqd1_hd
*C2_R1_C1 1.575e-03 7.370e-03 1.575e-03 
*LOADS
*RC o_Z\[11\] 2.322e-05
*END

*R_NET o_Z\[10\] 3.150e-03
*DRIVER o_Z_reg_10_:Q
*CELL fd1eqd1_hd
*C2_R1_C1 1.575e-03 7.370e-03 1.575e-03 
*LOADS
*RC o_Z\[10\] 2.322e-05
*END

*R_NET o_Z\[9\] 3.150e-03
*DRIVER o_Z_reg_9_:Q
*CELL fd1eqd1_hd
*C2_R1_C1 1.575e-03 7.370e-03 1.575e-03 
*LOADS
*RC o_Z\[9\] 2.322e-05
*END

*R_NET o_Z\[8\] 3.150e-03
*DRIVER o_Z_reg_8_:Q
*CELL fd1eqd1_hd
*C2_R1_C1 1.575e-03 7.370e-03 1.575e-03 
*LOADS
*RC o_Z\[8\] 2.322e-05
*END

*R_NET o_Z\[7\] 3.150e-03
*DRIVER o_Z_reg_7_:Q
*CELL fd1eqd1_hd
*C2_R1_C1 1.575e-03 7.370e-03 1.575e-03 
*LOADS
*RC o_Z\[7\] 2.322e-05
*END

*R_NET o_Z\[6\] 3.150e-03
*DRIVER o_Z_reg_6_:Q
*CELL fd1eqd1_hd
*C2_R1_C1 1.575e-03 7.370e-03 1.575e-03 
*LOADS
*RC o_Z\[6\] 2.322e-05
*END

*R_NET o_Z\[5\] 3.150e-03
*DRIVER o_Z_reg_5_:Q
*CELL fd1eqd1_hd
*C2_R1_C1 1.575e-03 7.370e-03 1.575e-03 
*LOADS
*RC o_Z\[5\] 2.322e-05
*END

*R_NET o_Z\[4\] 3.150e-03
*DRIVER o_Z_reg_4_:Q
*CELL fd1eqd1_hd
*C2_R1_C1 1.575e-03 7.370e-03 1.575e-03 
*LOADS
*RC o_Z\[4\] 2.322e-05
*END

*R_NET o_Z\[3\] 3.150e-03
*DRIVER o_Z_reg_3_:Q
*CELL fd1eqd1_hd
*C2_R1_C1 1.575e-03 7.370e-03 1.575e-03 
*LOADS
*RC o_Z\[3\] 2.322e-05
*END

*R_NET o_Z\[2\] 3.150e-03
*DRIVER o_Z_reg_2_:Q
*CELL fd1eqd1_hd
*C2_R1_C1 1.575e-03 7.370e-03 1.575e-03 
*LOADS
*RC o_Z\[2\] 2.322e-05
*END

*R_NET o_Z\[1\] 3.150e-03
*DRIVER o_Z_reg_1_:Q
*CELL fd1eqd1_hd
*C2_R1_C1 1.575e-03 7.370e-03 1.575e-03 
*LOADS
*RC o_Z\[1\] 2.322e-05
*END

*R_NET o_Z\[0\] 3.150e-03
*DRIVER o_Z_reg_0_:Q
*CELL fd1eqd1_hd
*C2_R1_C1 1.575e-03 7.370e-03 1.575e-03 
*LOADS
*RC o_Z\[0\] 2.322e-05
*END

*R_NET o_Z_STB 1.441e-02
*DRIVER o_Z_STB_reg:Q
*CELL fd1qd1_hd
*C2_R1_C1 7.205e-03 9.460e-03 7.205e-03 
*LOADS
*RC U415:C 1.363e-04
*RC U537:B 1.363e-04
*RC o_Z_STB 1.363e-04
*END

*R_NET i_Z_ACK 5.630e-03
*DRIVER i_Z_ACK
*CELL NULL
*C2_R1_C1 2.815e-03 7.370e-03 2.815e-03 
*LOADS
*RC U415:B 4.149e-05
*END

*R_NET state\[2\] 1.592e-02
*DRIVER state_reg_2_:Q
*CELL fd1qd1_hd
*C2_R1_C1 7.960e-03 9.460e-03 7.960e-03 
*LOADS
*RC U361:A 1.506e-04
*RC U403:A 1.506e-04
*RC U405:A 1.506e-04
*END

*R_NET state\[1\] 1.572e-02
*DRIVER state_reg_1_:Q
*CELL fd1qd1_hd
*C2_R1_C1 7.860e-03 9.460e-03 7.860e-03 
*LOADS
*RC U230:A 1.487e-04
*RC U404:A 1.487e-04
*RC U405:B 1.487e-04
*END

*R_NET state\[0\] 1.506e-02
*DRIVER state_reg_0_:Q
*CELL fd1qd1_hd
*C2_R1_C1 7.530e-03 9.460e-03 7.530e-03 
*LOADS
*RC U233:A 1.425e-04
*RC U312:A 1.425e-04
*RC U360:A 1.425e-04
*END

*R_NET a\[31\] 4.500e-03
*DRIVER a_reg_31_:Q
*CELL fd1eqd1_hd
*C2_R1_C1 2.250e-03 7.370e-03 2.250e-03 
*LOADS
*RC a_s_reg:D 3.316e-05
*END

*R_NET a\[30\] 9.230e-03
*DRIVER a_reg_30_:Q
*CELL fd1eqd1_hd
*C2_R1_C1 4.615e-03 9.100e-03 4.615e-03 
*LOADS
*RC U252:B 8.399e-05
*RC U402:AN 8.399e-05
*END

*R_NET a\[29\] 5.220e-03
*DRIVER a_reg_29_:Q
*CELL fd1eqd1_hd
*C2_R1_C1 2.610e-03 7.370e-03 2.610e-03 
*LOADS
*RC U363:A 3.847e-05
*END

*R_NET a\[28\] 1.041e-02
*DRIVER a_reg_28_:Q
*CELL fd1eqd1_hd
*C2_R1_C1 5.205e-03 9.100e-03 5.205e-03 
*LOADS
*RC U226:B 9.473e-05
*RC U553:B 9.473e-05
*END

*R_NET a\[27\] 5.220e-03
*DRIVER a_reg_27_:Q
*CELL fd1eqd1_hd
*C2_R1_C1 2.610e-03 7.370e-03 2.610e-03 
*LOADS
*RC U541:A 3.847e-05
*END

*R_NET a\[26\] 1.041e-02
*DRIVER a_reg_26_:Q
*CELL fd1eqd1_hd
*C2_R1_C1 5.205e-03 9.100e-03 5.205e-03 
*LOADS
*RC U231:B 9.473e-05
*RC U557:B 9.473e-05
*END

*R_NET a\[25\] 5.220e-03
*DRIVER a_reg_25_:Q
*CELL fd1eqd1_hd
*C2_R1_C1 2.610e-03 7.370e-03 2.610e-03 
*LOADS
*RC U539:A 3.847e-05
*END

*R_NET a\[24\] 1.041e-02
*DRIVER a_reg_24_:Q
*CELL fd1eqd1_hd
*C2_R1_C1 5.205e-03 9.100e-03 5.205e-03 
*LOADS
*RC U223:B 9.473e-05
*RC U562:B 9.473e-05
*END

*R_NET a\[23\] 1.654e-02
*DRIVER a_reg_23_:Q
*CELL fd1eqd1_hd
*C2_R1_C1 8.270e-03 9.460e-03 8.270e-03 
*LOADS
*RC U223:A 1.565e-04
*RC U562:A 1.565e-04
*RC U564:C 1.565e-04
*END

*R_NET a\[22\] 5.900e-03
*DRIVER a_reg_22_:Q
*CELL fd1eqd1_hd
*C2_R1_C1 2.950e-03 7.370e-03 2.950e-03 
*LOADS
*RC U475:D 4.348e-05
*END

*R_NET a\[21\] 5.900e-03
*DRIVER a_reg_21_:Q
*CELL fd1eqd1_hd
*C2_R1_C1 2.950e-03 7.370e-03 2.950e-03 
*LOADS
*RC U473:D 4.348e-05
*END

*R_NET a\[20\] 5.900e-03
*DRIVER a_reg_20_:Q
*CELL fd1eqd1_hd
*C2_R1_C1 2.950e-03 7.370e-03 2.950e-03 
*LOADS
*RC U471:D 4.348e-05
*END

*R_NET a\[19\] 5.900e-03
*DRIVER a_reg_19_:Q
*CELL fd1eqd1_hd
*C2_R1_C1 2.950e-03 7.370e-03 2.950e-03 
*LOADS
*RC U469:D 4.348e-05
*END

*R_NET a\[18\] 5.900e-03
*DRIVER a_reg_18_:Q
*CELL fd1eqd1_hd
*C2_R1_C1 2.950e-03 7.370e-03 2.950e-03 
*LOADS
*RC U467:D 4.348e-05
*END

*R_NET a\[17\] 5.900e-03
*DRIVER a_reg_17_:Q
*CELL fd1eqd1_hd
*C2_R1_C1 2.950e-03 7.370e-03 2.950e-03 
*LOADS
*RC U465:D 4.348e-05
*END

*R_NET a\[16\] 5.900e-03
*DRIVER a_reg_16_:Q
*CELL fd1eqd1_hd
*C2_R1_C1 2.950e-03 7.370e-03 2.950e-03 
*LOADS
*RC U463:D 4.348e-05
*END

*R_NET a\[15\] 5.900e-03
*DRIVER a_reg_15_:Q
*CELL fd1eqd1_hd
*C2_R1_C1 2.950e-03 7.370e-03 2.950e-03 
*LOADS
*RC U461:D 4.348e-05
*END

*R_NET a\[14\] 5.900e-03
*DRIVER a_reg_14_:Q
*CELL fd1eqd1_hd
*C2_R1_C1 2.950e-03 7.370e-03 2.950e-03 
*LOADS
*RC U459:D 4.348e-05
*END

*R_NET a\[13\] 5.900e-03
*DRIVER a_reg_13_:Q
*CELL fd1eqd1_hd
*C2_R1_C1 2.950e-03 7.370e-03 2.950e-03 
*LOADS
*RC U457:D 4.348e-05
*END

*R_NET a\[12\] 5.900e-03
*DRIVER a_reg_12_:Q
*CELL fd1eqd1_hd
*C2_R1_C1 2.950e-03 7.370e-03 2.950e-03 
*LOADS
*RC U455:D 4.348e-05
*END

*R_NET a\[11\] 5.900e-03
*DRIVER a_reg_11_:Q
*CELL fd1eqd1_hd
*C2_R1_C1 2.950e-03 7.370e-03 2.950e-03 
*LOADS
*RC U453:D 4.348e-05
*END

*R_NET a\[10\] 5.900e-03
*DRIVER a_reg_10_:Q
*CELL fd1eqd1_hd
*C2_R1_C1 2.950e-03 7.370e-03 2.950e-03 
*LOADS
*RC U451:D 4.348e-05
*END

*R_NET a\[9\] 5.900e-03
*DRIVER a_reg_9_:Q
*CELL fd1eqd1_hd
*C2_R1_C1 2.950e-03 7.370e-03 2.950e-03 
*LOADS
*RC U449:D 4.348e-05
*END

*R_NET a\[8\] 5.900e-03
*DRIVER a_reg_8_:Q
*CELL fd1eqd1_hd
*C2_R1_C1 2.950e-03 7.370e-03 2.950e-03 
*LOADS
*RC U447:D 4.348e-05
*END

*R_NET a\[7\] 5.900e-03
*DRIVER a_reg_7_:Q
*CELL fd1eqd1_hd
*C2_R1_C1 2.950e-03 7.370e-03 2.950e-03 
*LOADS
*RC U445:D 4.348e-05
*END

*R_NET a\[6\] 5.900e-03
*DRIVER a_reg_6_:Q
*CELL fd1eqd1_hd
*C2_R1_C1 2.950e-03 7.370e-03 2.950e-03 
*LOADS
*RC U443:D 4.348e-05
*END

*R_NET a\[5\] 5.900e-03
*DRIVER a_reg_5_:Q
*CELL fd1eqd1_hd
*C2_R1_C1 2.950e-03 7.370e-03 2.950e-03 
*LOADS
*RC U441:D 4.348e-05
*END

*R_NET a\[4\] 5.900e-03
*DRIVER a_reg_4_:Q
*CELL fd1eqd1_hd
*C2_R1_C1 2.950e-03 7.370e-03 2.950e-03 
*LOADS
*RC U439:D 4.348e-05
*END

*R_NET a\[3\] 5.900e-03
*DRIVER a_reg_3_:Q
*CELL fd1eqd1_hd
*C2_R1_C1 2.950e-03 7.370e-03 2.950e-03 
*LOADS
*RC U437:D 4.348e-05
*END

*R_NET a\[2\] 5.900e-03
*DRIVER a_reg_2_:Q
*CELL fd1eqd1_hd
*C2_R1_C1 2.950e-03 7.370e-03 2.950e-03 
*LOADS
*RC U435:D 4.348e-05
*END

*R_NET a\[1\] 5.900e-03
*DRIVER a_reg_1_:Q
*CELL fd1eqd1_hd
*C2_R1_C1 2.950e-03 7.370e-03 2.950e-03 
*LOADS
*RC U433:D 4.348e-05
*END

*R_NET a\[0\] 5.900e-03
*DRIVER a_reg_0_:Q
*CELL fd1eqd1_hd
*C2_R1_C1 2.950e-03 7.370e-03 2.950e-03 
*LOADS
*RC U431:D 4.348e-05
*END

*R_NET a_e\[8\] 1.555e-02
*DRIVER a_e_reg_8_:Q
*CELL fd1eqd1_hd
*C2_R1_C1 7.775e-03 9.460e-03 7.775e-03 
*LOADS
*RC U345:A 1.471e-04
*RC U348:A 1.471e-04
*RC U410:A 1.471e-04
*END

*R_NET a_e\[7\] 2.314e-02
*DRIVER a_e_reg_7_:Q
*CELL fd1eqd1_hd
*C2_R1_C1 1.157e-02 1.094e-02 1.157e-02 
*LOADS
*RC U228:A 2.532e-04
*RC U400:A 2.532e-04
*RC U410:B 2.532e-04
*RC U549:A 2.532e-04
*END

*R_NET a_e\[6\] 1.597e-02
*DRIVER a_e_reg_6_:Q
*CELL fd1eqd1_hd
*C2_R1_C1 7.985e-03 9.460e-03 7.985e-03 
*LOADS
*RC U313:B 1.511e-04
*RC U400:C 1.511e-04
*RC U545:A 1.511e-04
*END

*R_NET a_e\[5\] 2.257e-02
*DRIVER a_e_reg_5_:Q
*CELL fd1eqd1_hd
*C2_R1_C1 1.128e-02 1.094e-02 1.128e-02 
*LOADS
*RC U225:B 2.469e-04
*RC U313:A 2.469e-04
*RC U400:B 2.469e-04
*RC U552:B 2.469e-04
*END

*R_NET a_e\[4\] 1.607e-02
*DRIVER a_e_reg_4_:Q
*CELL fd1eqd1_hd
*C2_R1_C1 8.035e-03 9.460e-03 8.035e-03 
*LOADS
*RC U224:B 1.520e-04
*RC U409:A 1.520e-04
*RC U554:B 1.520e-04
*END

*R_NET a_e\[3\] 1.048e-02
*DRIVER a_e_reg_3_:Q
*CELL fd1eqd1_hd
*C2_R1_C1 5.240e-03 9.100e-03 5.240e-03 
*LOADS
*RC U347:A 9.537e-05
*RC U411:B 9.537e-05
*END

*R_NET a_e\[2\] 1.731e-02
*DRIVER a_e_reg_2_:Q
*CELL fd1eqd1_hd
*C2_R1_C1 8.655e-03 9.460e-03 8.655e-03 
*LOADS
*RC U411:A 1.638e-04
*RC U413:C 1.638e-04
*RC U559:B 1.638e-04
*END

*R_NET a_e\[1\] 2.239e-02
*DRIVER a_e_reg_1_:Q
*CELL fd1eqd1_hd
*C2_R1_C1 1.120e-02 1.094e-02 1.120e-02 
*LOADS
*RC U408:A 2.449e-04
*RC U413:B 2.449e-04
*RC U558:AN 2.449e-04
*RC U561:A 2.449e-04
*END

*R_NET a_e\[0\] 1.629e-02
*DRIVER a_e_reg_0_:Q
*CELL fd1eqd1_hd
*C2_R1_C1 8.145e-03 9.460e-03 8.145e-03 
*LOADS
*RC U399:A 1.541e-04
*RC U413:A 1.541e-04
*RC U564:A 1.541e-04
*END

*R_NET a_m\[31\] 5.220e-03
*DRIVER a_m_reg_31_:Q
*CELL fd1qd1_hd
*C2_R1_C1 2.610e-03 7.370e-03 2.610e-03 
*LOADS
*RC U359:A 3.847e-05
*END

*R_NET a_m\[30\] 1.615e-02
*DRIVER a_m_reg_30_:Q
*CELL fd1qd1_hd
*C2_R1_C1 8.075e-03 9.460e-03 8.075e-03 
*LOADS
*RC U320:A 1.528e-04
*RC U391:A 1.528e-04
*RC U475:A 1.528e-04
*END

*R_NET a_m\[29\] 2.253e-02
*DRIVER a_m_reg_29_:Q
*CELL fd1qd1_hd
*C2_R1_C1 1.127e-02 1.094e-02 1.127e-02 
*LOADS
*RC U303:A 2.465e-04
*RC U349:A 2.465e-04
*RC U473:A 2.465e-04
*RC U532:A 2.465e-04
*END

*R_NET a_m\[28\] 1.615e-02
*DRIVER a_m_reg_28_:Q
*CELL fd1qd1_hd
*C2_R1_C1 8.075e-03 9.460e-03 8.075e-03 
*LOADS
*RC U321:A 1.528e-04
*RC U383:A 1.528e-04
*RC U471:A 1.528e-04
*END

*R_NET a_m\[27\] 2.253e-02
*DRIVER a_m_reg_27_:Q
*CELL fd1qd1_hd
*C2_R1_C1 1.127e-02 1.094e-02 1.127e-02 
*LOADS
*RC U300:A 2.465e-04
*RC U350:A 2.465e-04
*RC U469:A 2.465e-04
*RC U529:A 2.465e-04
*END

*R_NET a_m\[26\] 1.615e-02
*DRIVER a_m_reg_26_:Q
*CELL fd1qd1_hd
*C2_R1_C1 8.075e-03 9.460e-03 8.075e-03 
*LOADS
*RC U322:A 1.528e-04
*RC U377:A 1.528e-04
*RC U467:A 1.528e-04
*END

*R_NET a_m\[25\] 2.253e-02
*DRIVER a_m_reg_25_:Q
*CELL fd1qd1_hd
*C2_R1_C1 1.127e-02 1.094e-02 1.127e-02 
*LOADS
*RC U297:A 2.465e-04
*RC U351:A 2.465e-04
*RC U465:A 2.465e-04
*RC U525:A 2.465e-04
*END

*R_NET a_m\[24\] 1.615e-02
*DRIVER a_m_reg_24_:Q
*CELL fd1qd1_hd
*C2_R1_C1 8.075e-03 9.460e-03 8.075e-03 
*LOADS
*RC U323:A 1.528e-04
*RC U366:A 1.528e-04
*RC U463:A 1.528e-04
*END

*R_NET a_m\[23\] 2.253e-02
*DRIVER a_m_reg_23_:Q
*CELL fd1qd1_hd
*C2_R1_C1 1.127e-02 1.094e-02 1.127e-02 
*LOADS
*RC U294:A 2.465e-04
*RC U352:A 2.465e-04
*RC U461:A 2.465e-04
*RC U521:A 2.465e-04
*END

*R_NET a_m\[22\] 1.615e-02
*DRIVER a_m_reg_22_:Q
*CELL fd1qd1_hd
*C2_R1_C1 8.075e-03 9.460e-03 8.075e-03 
*LOADS
*RC U324:A 1.528e-04
*RC U373:A 1.528e-04
*RC U459:A 1.528e-04
*END

*R_NET a_m\[21\] 2.253e-02
*DRIVER a_m_reg_21_:Q
*CELL fd1qd1_hd
*C2_R1_C1 1.127e-02 1.094e-02 1.127e-02 
*LOADS
*RC U291:A 2.465e-04
*RC U353:A 2.465e-04
*RC U457:A 2.465e-04
*RC U517:A 2.465e-04
*END

*R_NET a_m\[20\] 1.615e-02
*DRIVER a_m_reg_20_:Q
*CELL fd1qd1_hd
*C2_R1_C1 8.075e-03 9.460e-03 8.075e-03 
*LOADS
*RC U325:A 1.528e-04
*RC U368:A 1.528e-04
*RC U455:A 1.528e-04
*END

*R_NET a_m\[19\] 2.253e-02
*DRIVER a_m_reg_19_:Q
*CELL fd1qd1_hd
*C2_R1_C1 1.127e-02 1.094e-02 1.127e-02 
*LOADS
*RC U288:A 2.465e-04
*RC U354:A 2.465e-04
*RC U453:A 2.465e-04
*RC U513:A 2.465e-04
*END

*R_NET a_m\[18\] 1.615e-02
*DRIVER a_m_reg_18_:Q
*CELL fd1qd1_hd
*C2_R1_C1 8.075e-03 9.460e-03 8.075e-03 
*LOADS
*RC U326:A 1.528e-04
*RC U370:A 1.528e-04
*RC U451:A 1.528e-04
*END

*R_NET a_m\[17\] 2.253e-02
*DRIVER a_m_reg_17_:Q
*CELL fd1qd1_hd
*C2_R1_C1 1.127e-02 1.094e-02 1.127e-02 
*LOADS
*RC U285:A 2.465e-04
*RC U355:A 2.465e-04
*RC U449:A 2.465e-04
*RC U509:A 2.465e-04
*END

*R_NET a_m\[16\] 1.615e-02
*DRIVER a_m_reg_16_:Q
*CELL fd1qd1_hd
*C2_R1_C1 8.075e-03 9.460e-03 8.075e-03 
*LOADS
*RC U327:A 1.528e-04
*RC U387:A 1.528e-04
*RC U447:A 1.528e-04
*END

*R_NET a_m\[15\] 2.253e-02
*DRIVER a_m_reg_15_:Q
*CELL fd1qd1_hd
*C2_R1_C1 1.127e-02 1.094e-02 1.127e-02 
*LOADS
*RC U282:A 2.465e-04
*RC U356:A 2.465e-04
*RC U445:A 2.465e-04
*RC U505:A 2.465e-04
*END

*R_NET a_m\[14\] 1.615e-02
*DRIVER a_m_reg_14_:Q
*CELL fd1qd1_hd
*C2_R1_C1 8.075e-03 9.460e-03 8.075e-03 
*LOADS
*RC U328:A 1.528e-04
*RC U381:A 1.528e-04
*RC U443:A 1.528e-04
*END

*R_NET a_m\[13\] 2.253e-02
*DRIVER a_m_reg_13_:Q
*CELL fd1qd1_hd
*C2_R1_C1 1.127e-02 1.094e-02 1.127e-02 
*LOADS
*RC U279:A 2.465e-04
*RC U357:A 2.465e-04
*RC U441:A 2.465e-04
*RC U501:A 2.465e-04
*END

*R_NET a_m\[12\] 1.615e-02
*DRIVER a_m_reg_12_:Q
*CELL fd1qd1_hd
*C2_R1_C1 8.075e-03 9.460e-03 8.075e-03 
*LOADS
*RC U329:A 1.528e-04
*RC U379:A 1.528e-04
*RC U439:A 1.528e-04
*END

*R_NET a_m\[11\] 2.253e-02
*DRIVER a_m_reg_11_:Q
*CELL fd1qd1_hd
*C2_R1_C1 1.127e-02 1.094e-02 1.127e-02 
*LOADS
*RC U276:A 2.465e-04
*RC U358:A 2.465e-04
*RC U437:A 2.465e-04
*RC U497:A 2.465e-04
*END

*R_NET a_m\[10\] 1.615e-02
*DRIVER a_m_reg_10_:Q
*CELL fd1qd1_hd
*C2_R1_C1 8.075e-03 9.460e-03 8.075e-03 
*LOADS
*RC U330:A 1.528e-04
*RC U385:A 1.528e-04
*RC U435:A 1.528e-04
*END

*R_NET a_m\[9\] 2.253e-02
*DRIVER a_m_reg_9_:Q
*CELL fd1qd1_hd
*C2_R1_C1 1.127e-02 1.094e-02 1.127e-02 
*LOADS
*RC U273:A 2.465e-04
*RC U401:A 2.465e-04
*RC U433:A 2.465e-04
*RC U494:A 2.465e-04
*END

*R_NET a_m\[8\] 1.615e-02
*DRIVER a_m_reg_8_:Q
*CELL fd1qd1_hd
*C2_R1_C1 8.075e-03 9.460e-03 8.075e-03 
*LOADS
*RC U331:A 1.528e-04
*RC U389:A 1.528e-04
*RC U431:A 1.528e-04
*END

*R_NET a_m\[7\] 1.595e-02
*DRIVER a_m_reg_7_:Q
*CELL fd1qd1_hd
*C2_R1_C1 7.975e-03 9.460e-03 7.975e-03 
*LOADS
*RC U270:A 1.509e-04
*RC U338:A 1.509e-04
*RC U490:A 1.509e-04
*END

*R_NET a_m\[6\] 9.960e-03
*DRIVER a_m_reg_6_:Q
*CELL fd1qd1_hd
*C2_R1_C1 4.980e-03 9.100e-03 4.980e-03 
*LOADS
*RC U332:A 9.064e-05
*RC U374:A 9.064e-05
*END

*R_NET a_m\[5\] 1.595e-02
*DRIVER a_m_reg_5_:Q
*CELL fd1qd1_hd
*C2_R1_C1 7.975e-03 9.460e-03 7.975e-03 
*LOADS
*RC U267:A 1.509e-04
*RC U339:A 1.509e-04
*RC U486:A 1.509e-04
*END

*R_NET a_m\[4\] 9.960e-03
*DRIVER a_m_reg_4_:Q
*CELL fd1qd1_hd
*C2_R1_C1 4.980e-03 9.100e-03 4.980e-03 
*LOADS
*RC U333:A 9.064e-05
*RC U394:A 9.064e-05
*END

*R_NET a_m\[3\] 1.595e-02
*DRIVER a_m_reg_3_:Q
*CELL fd1qd1_hd
*C2_R1_C1 7.975e-03 9.460e-03 7.975e-03 
*LOADS
*RC U264:A 1.509e-04
*RC U334:A 1.509e-04
*RC U482:A 1.509e-04
*END

*R_NET a_m\[2\] 9.960e-03
*DRIVER a_m_reg_2_:Q
*CELL fd1qd1_hd
*C2_R1_C1 4.980e-03 9.100e-03 4.980e-03 
*LOADS
*RC U340:A 9.064e-05
*RC U396:A 9.064e-05
*END

*R_NET a_m\[1\] 1.019e-02
*DRIVER a_m_reg_1_:Q
*CELL fd1qd1_hd
*C2_R1_C1 5.095e-03 9.100e-03 5.095e-03 
*LOADS
*RC U315:A 9.273e-05
*RC U478:A 9.273e-05
*END

*R_NET a_s 7.672e-02
*DRIVER a_s_reg:Q
*CELL fd1eqd1_hd
*C2_R1_C1 3.836e-02 2.347e-02 3.836e-02 
*LOADS
*RC U234:A 1.801e-03
*RC U263:A 1.801e-03
*RC U266:A 1.801e-03
*RC U269:A 1.801e-03
*RC U272:A 1.801e-03
*RC U275:A 1.801e-03
*RC U278:A 1.801e-03
*RC U281:A 1.801e-03
*RC U284:A 1.801e-03
*RC U287:A 1.801e-03
*RC U290:A 1.801e-03
*RC U293:A 1.801e-03
*RC U296:A 1.801e-03
*RC U299:A 1.801e-03
*RC U302:A 1.801e-03
*RC U305:A 1.801e-03
*RC U344:A 1.801e-03
*END

*R_NET z\[31\] 9.520e-03
*DRIVER z_reg_31_:Q
*CELL fd1qd1_hd
*C2_R1_C1 4.760e-03 9.100e-03 4.760e-03 
*LOADS
*RC o_Z_reg_31_:D 8.663e-05
*RC U535:B 8.663e-05
*END

*R_NET z\[30\] 8.230e-03
*DRIVER z_reg_30_:Q
*CELL fd1qd1_hd
*C2_R1_C1 4.115e-03 9.100e-03 4.115e-03 
*LOADS
*RC o_Z_reg_30_:D 7.489e-05
*RC U390:B 7.489e-05
*END

*R_NET z\[29\] 8.230e-03
*DRIVER z_reg_29_:Q
*CELL fd1qd1_hd
*C2_R1_C1 4.115e-03 9.100e-03 4.115e-03 
*LOADS
*RC o_Z_reg_29_:D 7.489e-05
*RC U397:B 7.489e-05
*END

*R_NET z\[28\] 8.230e-03
*DRIVER z_reg_28_:Q
*CELL fd1qd1_hd
*C2_R1_C1 4.115e-03 9.100e-03 4.115e-03 
*LOADS
*RC o_Z_reg_28_:D 7.489e-05
*RC U382:B 7.489e-05
*END

*R_NET z\[27\] 8.230e-03
*DRIVER z_reg_27_:Q
*CELL fd1qd1_hd
*C2_R1_C1 4.115e-03 9.100e-03 4.115e-03 
*LOADS
*RC o_Z_reg_27_:D 7.489e-05
*RC U392:B 7.489e-05
*END

*R_NET z\[26\] 8.230e-03
*DRIVER z_reg_26_:Q
*CELL fd1qd1_hd
*C2_R1_C1 4.115e-03 9.100e-03 4.115e-03 
*LOADS
*RC o_Z_reg_26_:D 7.489e-05
*RC U376:B 7.489e-05
*END

*R_NET z\[25\] 8.230e-03
*DRIVER z_reg_25_:Q
*CELL fd1qd1_hd
*C2_R1_C1 4.115e-03 9.100e-03 4.115e-03 
*LOADS
*RC o_Z_reg_25_:D 7.489e-05
*RC U526:B 7.489e-05
*END

*R_NET z\[24\] 8.230e-03
*DRIVER z_reg_24_:Q
*CELL fd1qd1_hd
*C2_R1_C1 4.115e-03 9.100e-03 4.115e-03 
*LOADS
*RC o_Z_reg_24_:D 7.489e-05
*RC U365:B 7.489e-05
*END

*R_NET z\[23\] 8.230e-03
*DRIVER z_reg_23_:Q
*CELL fd1qd1_hd
*C2_R1_C1 4.115e-03 9.100e-03 4.115e-03 
*LOADS
*RC o_Z_reg_23_:D 7.489e-05
*RC U522:B 7.489e-05
*END

*R_NET z\[22\] 8.230e-03
*DRIVER z_reg_22_:Q
*CELL fd1qd1_hd
*C2_R1_C1 4.115e-03 9.100e-03 4.115e-03 
*LOADS
*RC o_Z_reg_22_:D 7.489e-05
*RC U372:B 7.489e-05
*END

*R_NET z\[21\] 8.230e-03
*DRIVER z_reg_21_:Q
*CELL fd1qd1_hd
*C2_R1_C1 4.115e-03 9.100e-03 4.115e-03 
*LOADS
*RC o_Z_reg_21_:D 7.489e-05
*RC U518:B 7.489e-05
*END

*R_NET z\[20\] 8.230e-03
*DRIVER z_reg_20_:Q
*CELL fd1qd1_hd
*C2_R1_C1 4.115e-03 9.100e-03 4.115e-03 
*LOADS
*RC o_Z_reg_20_:D 7.489e-05
*RC U367:B 7.489e-05
*END

*R_NET z\[19\] 8.230e-03
*DRIVER z_reg_19_:Q
*CELL fd1qd1_hd
*C2_R1_C1 4.115e-03 9.100e-03 4.115e-03 
*LOADS
*RC o_Z_reg_19_:D 7.489e-05
*RC U514:B 7.489e-05
*END

*R_NET z\[18\] 8.230e-03
*DRIVER z_reg_18_:Q
*CELL fd1qd1_hd
*C2_R1_C1 4.115e-03 9.100e-03 4.115e-03 
*LOADS
*RC o_Z_reg_18_:D 7.489e-05
*RC U369:B 7.489e-05
*END

*R_NET z\[17\] 8.230e-03
*DRIVER z_reg_17_:Q
*CELL fd1qd1_hd
*C2_R1_C1 4.115e-03 9.100e-03 4.115e-03 
*LOADS
*RC o_Z_reg_17_:D 7.489e-05
*RC U510:B 7.489e-05
*END

*R_NET z\[16\] 8.230e-03
*DRIVER z_reg_16_:Q
*CELL fd1qd1_hd
*C2_R1_C1 4.115e-03 9.100e-03 4.115e-03 
*LOADS
*RC o_Z_reg_16_:D 7.489e-05
*RC U386:B 7.489e-05
*END

*R_NET z\[15\] 8.230e-03
*DRIVER z_reg_15_:Q
*CELL fd1qd1_hd
*C2_R1_C1 4.115e-03 9.100e-03 4.115e-03 
*LOADS
*RC o_Z_reg_15_:D 7.489e-05
*RC U506:B 7.489e-05
*END

*R_NET z\[14\] 8.230e-03
*DRIVER z_reg_14_:Q
*CELL fd1qd1_hd
*C2_R1_C1 4.115e-03 9.100e-03 4.115e-03 
*LOADS
*RC o_Z_reg_14_:D 7.489e-05
*RC U380:B 7.489e-05
*END

*R_NET z\[13\] 8.230e-03
*DRIVER z_reg_13_:Q
*CELL fd1qd1_hd
*C2_R1_C1 4.115e-03 9.100e-03 4.115e-03 
*LOADS
*RC o_Z_reg_13_:D 7.489e-05
*RC U502:B 7.489e-05
*END

*R_NET z\[12\] 8.230e-03
*DRIVER z_reg_12_:Q
*CELL fd1qd1_hd
*C2_R1_C1 4.115e-03 9.100e-03 4.115e-03 
*LOADS
*RC o_Z_reg_12_:D 7.489e-05
*RC U378:B 7.489e-05
*END

*R_NET z\[11\] 8.230e-03
*DRIVER z_reg_11_:Q
*CELL fd1qd1_hd
*C2_R1_C1 4.115e-03 9.100e-03 4.115e-03 
*LOADS
*RC o_Z_reg_11_:D 7.489e-05
*RC U498:B 7.489e-05
*END

*R_NET z\[10\] 8.230e-03
*DRIVER z_reg_10_:Q
*CELL fd1qd1_hd
*C2_R1_C1 4.115e-03 9.100e-03 4.115e-03 
*LOADS
*RC o_Z_reg_10_:D 7.489e-05
*RC U384:B 7.489e-05
*END

*R_NET z\[9\] 8.230e-03
*DRIVER z_reg_9_:Q
*CELL fd1qd1_hd
*C2_R1_C1 4.115e-03 9.100e-03 4.115e-03 
*LOADS
*RC o_Z_reg_9_:D 7.489e-05
*RC U375:B 7.489e-05
*END

*R_NET z\[8\] 8.230e-03
*DRIVER z_reg_8_:Q
*CELL fd1qd1_hd