*SPEF "IEEE 1481-1999"
*DESIGN "iir_lpf"
*DATE "Mon May  4 19:55:25 2020"
*VENDOR "SYNOPSYS INC"
*PROGRAM "Synopsys Design Compiler cmos"
*VERSION "F-2011.09-SP5-3"
*DESIGN_FLOW "SYNTHESIS"
*DIVIDER /
*DELIMITER :
*BUS_DELIMITER []
*T_UNIT 1.0 NS
*C_UNIT 1.0 PF
*R_UNIT 1.0 KOHM
*L_UNIT 1.0 HENRY

*PORTS

i_X_DATA\[31\] I *L 0.000e+00 *S 0.000e+00 0.000e+00 
i_X_DATA\[30\] I *L 0.000e+00 *S 0.000e+00 0.000e+00 
i_X_DATA\[29\] I *L 0.000e+00 *S 0.000e+00 0.000e+00 
i_X_DATA\[28\] I *L 0.000e+00 *S 0.000e+00 0.000e+00 
i_X_DATA\[27\] I *L 0.000e+00 *S 0.000e+00 0.000e+00 
i_X_DATA\[26\] I *L 0.000e+00 *S 0.000e+00 0.000e+00 
i_X_DATA\[25\] I *L 0.000e+00 *S 0.000e+00 0.000e+00 
i_X_DATA\[24\] I *L 0.000e+00 *S 0.000e+00 0.000e+00 
i_X_DATA\[23\] I *L 0.000e+00 *S 0.000e+00 0.000e+00 
i_X_DATA\[22\] I *L 0.000e+00 *S 0.000e+00 0.000e+00 
i_X_DATA\[21\] I *L 0.000e+00 *S 0.000e+00 0.000e+00 
i_X_DATA\[20\] I *L 0.000e+00 *S 0.000e+00 0.000e+00 
i_X_DATA\[19\] I *L 0.000e+00 *S 0.000e+00 0.000e+00 
i_X_DATA\[18\] I *L 0.000e+00 *S 0.000e+00 0.000e+00 
i_X_DATA\[17\] I *L 0.000e+00 *S 0.000e+00 0.000e+00 
i_X_DATA\[16\] I *L 0.000e+00 *S 0.000e+00 0.000e+00 
i_X_DATA\[15\] I *L 0.000e+00 *S 0.000e+00 0.000e+00 
i_X_DATA\[14\] I *L 0.000e+00 *S 0.000e+00 0.000e+00 
i_X_DATA\[13\] I *L 0.000e+00 *S 0.000e+00 0.000e+00 
i_X_DATA\[12\] I *L 0.000e+00 *S 0.000e+00 0.000e+00 
i_X_DATA\[11\] I *L 0.000e+00 *S 0.000e+00 0.000e+00 
i_X_DATA\[10\] I *L 0.000e+00 *S 0.000e+00 0.000e+00 
i_X_DATA\[9\] I *L 0.000e+00 *S 0.000e+00 0.000e+00 
i_X_DATA\[8\] I *L 0.000e+00 *S 0.000e+00 0.000e+00 
i_X_DATA\[7\] I *L 0.000e+00 *S 0.000e+00 0.000e+00 
i_X_DATA\[6\] I *L 0.000e+00 *S 0.000e+00 0.000e+00 
i_X_DATA\[5\] I *L 0.000e+00 *S 0.000e+00 0.000e+00 
i_X_DATA\[4\] I *L 0.000e+00 *S 0.000e+00 0.000e+00 
i_X_DATA\[3\] I *L 0.000e+00 *S 0.000e+00 0.000e+00 
i_X_DATA\[2\] I *L 0.000e+00 *S 0.000e+00 0.000e+00 
i_X_DATA\[1\] I *L 0.000e+00 *S 0.000e+00 0.000e+00 
i_X_DATA\[0\] I *L 0.000e+00 *S 0.000e+00 0.000e+00 
i_X_DATA_VALID I *L 0.000e+00 *S 0.000e+00 0.000e+00 
o_X_DATA_READY O *L 1.035e-02 *S 1.969e-01 1.489e-01 
o_Y_DATA\[31\] O *L 1.035e-02 *S 2.437e-01 2.723e-01 
o_Y_DATA\[30\] O *L 1.035e-02 *S 2.437e-01 2.723e-01 
o_Y_DATA\[29\] O *L 1.035e-02 *S 2.437e-01 2.723e-01 
o_Y_DATA\[28\] O *L 1.035e-02 *S 2.437e-01 2.723e-01 
o_Y_DATA\[27\] O *L 1.035e-02 *S 2.437e-01 2.723e-01 
o_Y_DATA\[26\] O *L 1.035e-02 *S 2.437e-01 2.723e-01 
o_Y_DATA\[25\] O *L 1.035e-02 *S 2.437e-01 2.723e-01 
o_Y_DATA\[24\] O *L 1.035e-02 *S 2.437e-01 2.723e-01 
o_Y_DATA\[23\] O *L 1.035e-02 *S 2.437e-01 2.723e-01 
o_Y_DATA\[22\] O *L 1.035e-02 *S 2.437e-01 2.723e-01 
o_Y_DATA\[21\] O *L 1.035e-02 *S 2.437e-01 2.723e-01 
o_Y_DATA\[20\] O *L 1.035e-02 *S 2.437e-01 2.723e-01 
o_Y_DATA\[19\] O *L 1.035e-02 *S 2.437e-01 2.723e-01 
o_Y_DATA\[18\] O *L 1.035e-02 *S 2.437e-01 2.723e-01 
o_Y_DATA\[17\] O *L 1.035e-02 *S 2.437e-01 2.723e-01 
o_Y_DATA\[16\] O *L 1.035e-02 *S 2.437e-01 2.723e-01 
o_Y_DATA\[15\] O *L 1.035e-02 *S 2.437e-01 2.723e-01 
o_Y_DATA\[14\] O *L 1.035e-02 *S 2.437e-01 2.723e-01 
o_Y_DATA\[13\] O *L 1.035e-02 *S 2.437e-01 2.723e-01 
o_Y_DATA\[12\] O *L 1.035e-02 *S 2.437e-01 2.723e-01 
o_Y_DATA\[11\] O *L 1.035e-02 *S 2.437e-01 2.723e-01 
o_Y_DATA\[10\] O *L 1.035e-02 *S 2.437e-01 2.723e-01 
o_Y_DATA\[9\] O *L 1.035e-02 *S 2.437e-01 2.723e-01 
o_Y_DATA\[8\] O *L 1.035e-02 *S 2.437e-01 2.723e-01 
o_Y_DATA\[7\] O *L 1.035e-02 *S 2.437e-01 2.723e-01 
o_Y_DATA\[6\] O *L 1.035e-02 *S 2.437e-01 2.723e-01 
o_Y_DATA\[5\] O *L 1.035e-02 *S 2.437e-01 2.723e-01 
o_Y_DATA\[4\] O *L 1.035e-02 *S 2.437e-01 2.723e-01 
o_Y_DATA\[3\] O *L 1.035e-02 *S 2.437e-01 2.723e-01 
o_Y_DATA\[2\] O *L 1.035e-02 *S 2.437e-01 2.723e-01 
o_Y_DATA\[1\] O *L 1.035e-02 *S 2.437e-01 2.723e-01 
o_Y_DATA\[0\] O *L 1.035e-02 *S 2.437e-01 2.723e-01 
o_Y_DATA_VALID O *L 1.035e-02 *S 2.582e-01 2.841e-01 
i_Y_ACK I *L 0.000e+00 *S 0.000e+00 0.000e+00 
i_CLK I *L 0.000e+00 *S 0.000e+00 0.000e+00 
i_RSTN I *L 0.000e+00 *S 0.000e+00 0.000e+00 

*R_NET i_X_DATA\[31\] 5.700e-03
*DRIVER i_X_DATA\[31\]
*CELL NULL
*C2_R1_C1 2.850e-03 7.940e-03 2.850e-03 
*LOADS
*RC U744:B 4.526e-05
*END

*R_NET i_X_DATA\[30\] 5.700e-03
*DRIVER i_X_DATA\[30\]
*CELL NULL
*C2_R1_C1 2.850e-03 7.940e-03 2.850e-03 
*LOADS
*RC U745:B 4.526e-05
*END

*R_NET i_X_DATA\[29\] 5.700e-03
*DRIVER i_X_DATA\[29\]
*CELL NULL
*C2_R1_C1 2.850e-03 7.940e-03 2.850e-03 
*LOADS
*RC U746:B 4.526e-05
*END

*R_NET i_X_DATA\[28\] 5.700e-03
*DRIVER i_X_DATA\[28\]
*CELL NULL
*C2_R1_C1 2.850e-03 7.940e-03 2.850e-03 
*LOADS
*RC U747:B 4.526e-05
*END

*R_NET i_X_DATA\[27\] 5.700e-03
*DRIVER i_X_DATA\[27\]
*CELL NULL
*C2_R1_C1 2.850e-03 7.940e-03 2.850e-03 
*LOADS
*RC U748:B 4.526e-05
*END

*R_NET i_X_DATA\[26\] 5.700e-03
*DRIVER i_X_DATA\[26\]
*CELL NULL
*C2_R1_C1 2.850e-03 7.940e-03 2.850e-03 
*LOADS
*RC U749:B 4.526e-05
*END

*R_NET i_X_DATA\[25\] 5.700e-03
*DRIVER i_X_DATA\[25\]
*CELL NULL
*C2_R1_C1 2.850e-03 7.940e-03 2.850e-03 
*LOADS
*RC U750:B 4.526e-05
*END

*R_NET i_X_DATA\[24\] 5.700e-03
*DRIVER i_X_DATA\[24\]
*CELL NULL
*C2_R1_C1 2.850e-03 7.940e-03 2.850e-03 
*LOADS
*RC U751:B 4.526e-05
*END

*R_NET i_X_DATA\[23\] 5.700e-03
*DRIVER i_X_DATA\[23\]
*CELL NULL
*C2_R1_C1 2.850e-03 7.940e-03 2.850e-03 
*LOADS
*RC U752:B 4.526e-05
*END

*R_NET i_X_DATA\[22\] 5.700e-03
*DRIVER i_X_DATA\[22\]
*CELL NULL
*C2_R1_C1 2.850e-03 7.940e-03 2.850e-03 
*LOADS
*RC U753:B 4.526e-05
*END

*R_NET i_X_DATA\[21\] 5.700e-03
*DRIVER i_X_DATA\[21\]
*CELL NULL
*C2_R1_C1 2.850e-03 7.940e-03 2.850e-03 
*LOADS
*RC U754:B 4.526e-05
*END

*R_NET i_X_DATA\[20\] 5.700e-03
*DRIVER i_X_DATA\[20\]
*CELL NULL
*C2_R1_C1 2.850e-03 7.940e-03 2.850e-03 
*LOADS
*RC U755:B 4.526e-05
*END

*R_NET i_X_DATA\[19\] 5.700e-03
*DRIVER i_X_DATA\[19\]
*CELL NULL
*C2_R1_C1 2.850e-03 7.940e-03 2.850e-03 
*LOADS
*RC U756:B 4.526e-05
*END

*R_NET i_X_DATA\[18\] 5.700e-03
*DRIVER i_X_DATA\[18\]
*CELL NULL
*C2_R1_C1 2.850e-03 7.940e-03 2.850e-03 
*LOADS
*RC U757:B 4.526e-05
*END

*R_NET i_X_DATA\[17\] 5.700e-03
*DRIVER i_X_DATA\[17\]
*CELL NULL
*C2_R1_C1 2.850e-03 7.940e-03 2.850e-03 
*LOADS
*RC U758:B 4.526e-05
*END

*R_NET i_X_DATA\[16\] 5.700e-03
*DRIVER i_X_DATA\[16\]
*CELL NULL
*C2_R1_C1 2.850e-03 7.940e-03 2.850e-03 
*LOADS
*RC U759:B 4.526e-05
*END

*R_NET i_X_DATA\[15\] 5.700e-03
*DRIVER i_X_DATA\[15\]
*CELL NULL
*C2_R1_C1 2.850e-03 7.940e-03 2.850e-03 
*LOADS
*RC U760:B 4.526e-05
*END

*R_NET i_X_DATA\[14\] 5.700e-03
*DRIVER i_X_DATA\[14\]
*CELL NULL
*C2_R1_C1 2.850e-03 7.940e-03 2.850e-03 
*LOADS
*RC U761:B 4.526e-05
*END

*R_NET i_X_DATA\[13\] 5.700e-03
*DRIVER i_X_DATA\[13\]
*CELL NULL
*C2_R1_C1 2.850e-03 7.940e-03 2.850e-03 
*LOADS
*RC U762:B 4.526e-05
*END

*R_NET i_X_DATA\[12\] 5.700e-03
*DRIVER i_X_DATA\[12\]
*CELL NULL
*C2_R1_C1 2.850e-03 7.940e-03 2.850e-03 
*LOADS
*RC U763:B 4.526e-05
*END

*R_NET i_X_DATA\[11\] 5.700e-03
*DRIVER i_X_DATA\[11\]
*CELL NULL
*C2_R1_C1 2.850e-03 7.940e-03 2.850e-03 
*LOADS
*RC U764:B 4.526e-05
*END

*R_NET i_X_DATA\[10\] 5.700e-03
*DRIVER i_X_DATA\[10\]
*CELL NULL
*C2_R1_C1 2.850e-03 7.940e-03 2.850e-03 
*LOADS
*RC U765:B 4.526e-05
*END

*R_NET i_X_DATA\[9\] 5.700e-03
*DRIVER i_X_DATA\[9\]
*CELL NULL
*C2_R1_C1 2.850e-03 7.940e-03 2.850e-03 
*LOADS
*RC U766:B 4.526e-05
*END

*R_NET i_X_DATA\[8\] 5.700e-03
*DRIVER i_X_DATA\[8\]
*CELL NULL
*C2_R1_C1 2.850e-03 7.940e-03 2.850e-03 
*LOADS
*RC U767:B 4.526e-05
*END

*R_NET i_X_DATA\[7\] 5.700e-03
*DRIVER i_X_DATA\[7\]
*CELL NULL
*C2_R1_C1 2.850e-03 7.940e-03 2.850e-03 
*LOADS
*RC U768:B 4.526e-05
*END

*R_NET i_X_DATA\[6\] 5.700e-03
*DRIVER i_X_DATA\[6\]
*CELL NULL
*C2_R1_C1 2.850e-03 7.940e-03 2.850e-03 
*LOADS
*RC U769:B 4.526e-05
*END

*R_NET i_X_DATA\[5\] 5.700e-03
*DRIVER i_X_DATA\[5\]
*CELL NULL
*C2_R1_C1 2.850e-03 7.940e-03 2.850e-03 
*LOADS
*RC U770:B 4.526e-05
*END

*R_NET i_X_DATA\[4\] 5.700e-03
*DRIVER i_X_DATA\[4\]
*CELL NULL
*C2_R1_C1 2.850e-03 7.940e-03 2.850e-03 
*LOADS
*RC U771:B 4.526e-05
*END

*R_NET i_X_DATA\[3\] 5.700e-03
*DRIVER i_X_DATA\[3\]
*CELL NULL
*C2_R1_C1 2.850e-03 7.940e-03 2.850e-03 
*LOADS
*RC U772:B 4.526e-05
*END

*R_NET i_X_DATA\[2\] 5.700e-03
*DRIVER i_X_DATA\[2\]
*CELL NULL
*C2_R1_C1 2.850e-03 7.940e-03 2.850e-03 
*LOADS
*RC U773:B 4.526e-05
*END

*R_NET i_X_DATA\[1\] 5.700e-03
*DRIVER i_X_DATA\[1\]
*CELL NULL
*C2_R1_C1 2.850e-03 7.940e-03 2.850e-03 
*LOADS
*RC U774:B 4.526e-05
*END

*R_NET i_X_DATA\[0\] 5.700e-03
*DRIVER i_X_DATA\[0\]
*CELL NULL
*C2_R1_C1 2.850e-03 7.940e-03 2.850e-03 
*LOADS
*RC U775:B 4.526e-05
*END

*R_NET i_X_DATA_VALID 5.700e-03
*DRIVER i_X_DATA_VALID
*CELL NULL
*C2_R1_C1 2.850e-03 7.940e-03 2.850e-03 
*LOADS
*RC U690:B 4.526e-05
*END

*R_NET o_X_DATA_READY 2.237e-02
*DRIVER o_X_DATA_READY_reg:Q
*CELL fd1eqd1_hd
*C2_R1_C1 1.118e-02 1.157e-02 1.118e-02 
*LOADS
*RC U690:A 2.588e-04
*RC o_X_DATA_READY 2.588e-04
*END

*R_NET o_Y_DATA\[31\] 2.803e-02
*DRIVER o_Y_DATA_reg_31_:Q
*CELL fd2qd1_hd
*C2_R1_C1 1.402e-02 1.366e-02 1.402e-02 
*LOADS
*RC U858:B 3.829e-04
*RC U1006:A 3.829e-04
*RC o_Y_DATA\[31\] 3.829e-04
*END

*R_NET o_Y_DATA\[30\] 2.803e-02
*DRIVER o_Y_DATA_reg_30_:Q
*CELL fd2qd1_hd
*C2_R1_C1 1.402e-02 1.366e-02 1.402e-02 
*LOADS
*RC U857:B 3.829e-04
*RC U1104:A 3.829e-04
*RC o_Y_DATA\[30\] 3.829e-04
*END

*R_NET o_Y_DATA\[29\] 2.803e-02
*DRIVER o_Y_DATA_reg_29_:Q
*CELL fd2qd1_hd
*C2_R1_C1 1.402e-02 1.366e-02 1.402e-02 
*LOADS
*RC U852:B 3.829e-04
*RC U1102:A 3.829e-04
*RC o_Y_DATA\[29\] 3.829e-04
*END

*R_NET o_Y_DATA\[28\] 2.803e-02
*DRIVER o_Y_DATA_reg_28_:Q
*CELL fd2qd1_hd
*C2_R1_C1 1.402e-02 1.366e-02 1.402e-02 
*LOADS
*RC U849:B 3.829e-04
*RC U1103:A 3.829e-04
*RC o_Y_DATA\[28\] 3.829e-04
*END

*R_NET o_Y_DATA\[27\] 2.803e-02
*DRIVER o_Y_DATA_reg_27_:Q
*CELL fd2qd1_hd
*C2_R1_C1 1.402e-02 1.366e-02 1.402e-02 
*LOADS
*RC U819:B 3.829e-04
*RC U1093:A 3.829e-04
*RC o_Y_DATA\[27\] 3.829e-04
*END

*R_NET o_Y_DATA\[26\] 2.803e-02
*DRIVER o_Y_DATA_reg_26_:Q
*CELL fd2qd1_hd
*C2_R1_C1 1.402e-02 1.366e-02 1.402e-02 
*LOADS
*RC U817:B 3.829e-04
*RC U1097:A 3.829e-04
*RC o_Y_DATA\[26\] 3.829e-04
*END

*R_NET o_Y_DATA\[25\] 2.803e-02
*DRIVER o_Y_DATA_reg_25_:Q
*CELL fd2qd1_hd
*C2_R1_C1 1.402e-02 1.366e-02 1.402e-02 
*LOADS
*RC U818:B 3.829e-04
*RC U1100:A 3.829e-04
*RC o_Y_DATA\[25\] 3.829e-04
*END

*R_NET o_Y_DATA\[24\] 2.803e-02
*DRIVER o_Y_DATA_reg_24_:Q
*CELL fd2qd1_hd
*C2_R1_C1 1.402e-02 1.366e-02 1.402e-02 
*LOADS
*RC U820:B 3.829e-04
*RC U995:A 3.829e-04
*RC o_Y_DATA\[24\] 3.829e-04
*END

*R_NET o_Y_DATA\[23\] 2.803e-02
*DRIVER o_Y_DATA_reg_23_:Q
*CELL fd2qd1_hd
*C2_R1_C1 1.402e-02 1.366e-02 1.402e-02 
*LOADS
*RC U822:B 3.829e-04
*RC U997:A 3.829e-04
*RC o_Y_DATA\[23\] 3.829e-04
*END

*R_NET o_Y_DATA\[22\] 2.803e-02
*DRIVER o_Y_DATA_reg_22_:Q
*CELL fd2qd1_hd
*C2_R1_C1 1.402e-02 1.366e-02 1.402e-02 
*LOADS
*RC U823:B 3.829e-04
*RC U998:A 3.829e-04
*RC o_Y_DATA\[22\] 3.829e-04
*END

*R_NET o_Y_DATA\[21\] 2.803e-02
*DRIVER o_Y_DATA_reg_21_:Q
*CELL fd2qd1_hd
*C2_R1_C1 1.402e-02 1.366e-02 1.402e-02 
*LOADS
*RC U825:B 3.829e-04
*RC U996:A 3.829e-04
*RC o_Y_DATA\[21\] 3.829e-04
*END

*R_NET o_Y_DATA\[20\] 2.803e-02
*DRIVER o_Y_DATA_reg_20_:Q
*CELL fd2qd1_hd
*C2_R1_C1 1.402e-02 1.366e-02 1.402e-02 
*LOADS
*RC U827:B 3.829e-04
*RC U1002:A 3.829e-04
*RC o_Y_DATA\[20\] 3.829e-04
*END

*R_NET o_Y_DATA\[19\] 2.803e-02
*DRIVER o_Y_DATA_reg_19_:Q
*CELL fd2qd1_hd
*C2_R1_C1 1.402e-02 1.366e-02 1.402e-02 
*LOADS
*RC U829:B 3.829e-04
*RC U1000:A 3.829e-04
*RC o_Y_DATA\[19\] 3.829e-04
*END

*R_NET o_Y_DATA\[18\] 2.803e-02
*DRIVER o_Y_DATA_reg_18_:Q
*CELL fd2qd1_hd
*C2_R1_C1 1.402e-02 1.366e-02 1.402e-02 
*LOADS
*RC U831:B 3.829e-04
*RC U1098:A 3.829e-04
*RC o_Y_DATA\[18\] 3.829e-04
*END

*R_NET o_Y_DATA\[17\] 2.803e-02
*DRIVER o_Y_DATA_reg_17_:Q
*CELL fd2qd1_hd
*C2_R1_C1 1.402e-02 1.366e-02 1.402e-02 
*LOADS
*RC U832:B 3.829e-04
*RC U1096:A 3.829e-04
*RC o_Y_DATA\[17\] 3.829e-04
*END

*R_NET o_Y_DATA\[16\] 2.803e-02
*DRIVER o_Y_DATA_reg_16_:Q
*CELL fd2qd1_hd
*C2_R1_C1 1.402e-02 1.366e-02 1.402e-02 
*LOADS
*RC U833:B 3.829e-04
*RC U1101:A 3.829e-04
*RC o_Y_DATA\[16\] 3.829e-04
*END

*R_NET o_Y_DATA\[15\] 2.803e-02
*DRIVER o_Y_DATA_reg_15_:Q
*CELL fd2qd1_hd
*C2_R1_C1 1.402e-02 1.366e-02 1.402e-02 
*LOADS
*RC U815:B 3.829e-04
*RC U1099:A 3.829e-04
*RC o_Y_DATA\[15\] 3.829e-04
*END

*R_NET o_Y_DATA\[14\] 2.803e-02
*DRIVER o_Y_DATA_reg_14_:Q
*CELL fd2qd1_hd
*C2_R1_C1 1.402e-02 1.366e-02 1.402e-02 
*LOADS
*RC U816:B 3.829e-04
*RC U1095:A 3.829e-04
*RC o_Y_DATA\[14\] 3.829e-04
*END

*R_NET o_Y_DATA\[13\] 2.803e-02
*DRIVER o_Y_DATA_reg_13_:Q
*CELL fd2qd1_hd
*C2_R1_C1 1.402e-02 1.366e-02 1.402e-02 
*LOADS
*RC U834:B 3.829e-04
*RC U1094:A 3.829e-04
*RC o_Y_DATA\[13\] 3.829e-04
*END

*R_NET o_Y_DATA\[12\] 2.803e-02
*DRIVER o_Y_DATA_reg_12_:Q
*CELL fd2qd1_hd
*C2_R1_C1 1.402e-02 1.366e-02 1.402e-02 
*LOADS
*RC U824:B 3.829e-04
*RC U999:A 3.829e-04
*RC o_Y_DATA\[12\] 3.829e-04
*END

*R_NET o_Y_DATA\[11\] 2.803e-02
*DRIVER o_Y_DATA_reg_11_:Q
*CELL fd2qd1_hd
*C2_R1_C1 1.402e-02 1.366e-02 1.402e-02 
*LOADS
*RC U875:B 3.829e-04
*RC U1003:A 3.829e-04
*RC o_Y_DATA\[11\] 3.829e-04
*END

*R_NET o_Y_DATA\[10\] 2.803e-02
*DRIVER o_Y_DATA_reg_10_:Q
*CELL fd2qd1_hd
*C2_R1_C1 1.402e-02 1.366e-02 1.402e-02 
*LOADS
*RC U859:B 3.829e-04
*RC U990:A 3.829e-04
*RC o_Y_DATA\[10\] 3.829e-04
*END

*R_NET o_Y_DATA\[9\] 2.803e-02
*DRIVER o_Y_DATA_reg_9_:Q
*CELL fd2qd1_hd
*C2_R1_C1 1.402e-02 1.366e-02 1.402e-02 
*LOADS
*RC U860:B 3.829e-04
*RC U992:A 3.829e-04
*RC o_Y_DATA\[9\] 3.829e-04
*END

*R_NET o_Y_DATA\[8\] 2.803e-02
*DRIVER o_Y_DATA_reg_8_:Q
*CELL fd2qd1_hd
*C2_R1_C1 1.402e-02 1.366e-02 1.402e-02 
*LOADS
*RC U861:B 3.829e-04
*RC U1001:A 3.829e-04
*RC o_Y_DATA\[8\] 3.829e-04
*END

*R_NET o_Y_DATA\[7\] 2.803e-02
*DRIVER o_Y_DATA_reg_7_:Q
*CELL fd2qd1_hd
*C2_R1_C1 1.402e-02 1.366e-02 1.402e-02 
*LOADS
*RC U862:B 3.829e-04
*RC U994:A 3.829e-04
*RC o_Y_DATA\[7\] 3.829e-04
*END

*R_NET o_Y_DATA\[6\] 2.803e-02
*DRIVER o_Y_DATA_reg_6_:Q
*CELL fd2qd1_hd
*C2_R1_C1 1.402e-02 1.366e-02 1.402e-02 
*LOADS
*RC U864:B 3.829e-04
*RC U991:A 3.829e-04
*RC o_Y_DATA\[6\] 3.829e-04
*END

*R_NET o_Y_DATA\[5\] 2.803e-02
*DRIVER o_Y_DATA_reg_5_:Q
*CELL fd2qd1_hd
*C2_R1_C1 1.402e-02 1.366e-02 1.402e-02 
*LOADS
*RC U865:B 3.829e-04
*RC U993:A 3.829e-04
*RC o_Y_DATA\[5\] 3.829e-04
*END

*R_NET o_Y_DATA\[4\] 2.803e-02
*DRIVER o_Y_DATA_reg_4_:Q
*CELL fd2qd1_hd
*C2_R1_C1 1.402e-02 1.366e-02 1.402e-02 
*LOADS
*RC U866:B 3.829e-04
*RC U1004:A 3.829e-04
*RC o_Y_DATA\[4\] 3.829e-04
*END

*R_NET o_Y_DATA\[3\] 2.803e-02
*DRIVER o_Y_DATA_reg_3_:Q
*CELL fd2qd1_hd
*C2_R1_C1 1.402e-02 1.366e-02 1.402e-02 
*LOADS
*RC U863:B 3.829e-04
*RC U1007:A 3.829e-04
*RC o_Y_DATA\[3\] 3.829e-04
*END

*R_NET o_Y_DATA\[2\] 2.803e-02
*DRIVER o_Y_DATA_reg_2_:Q
*CELL fd2qd1_hd
*C2_R1_C1 1.402e-02 1.366e-02 1.402e-02 
*LOADS
*RC U830:B 3.829e-04
*RC U1005:A 3.829e-04
*RC o_Y_DATA\[2\] 3.829e-04
*END

*R_NET o_Y_DATA\[1\] 2.803e-02
*DRIVER o_Y_DATA_reg_1_:Q
*CELL fd2qd1_hd
*C2_R1_C1 1.402e-02 1.366e-02 1.402e-02 
*LOADS
*RC U828:B 3.829e-04
*RC U1008:A 3.829e-04
*RC o_Y_DATA\[1\] 3.829e-04
*END

*R_NET o_Y_DATA\[0\] 2.803e-02
*DRIVER o_Y_DATA_reg_0_:Q
*CELL fd2qd1_hd
*C2_R1_C1 1.402e-02 1.366e-02 1.402e-02 
*LOADS
*RC U826:B 3.829e-04
*RC U1009:A 3.829e-04
*RC o_Y_DATA\[0\] 3.829e-04
*END

*R_NET o_Y_DATA_VALID 2.983e-02
*DRIVER o_Y_DATA_VALID_reg:Q
*CELL fd2qd1_hd
*C2_R1_C1 1.492e-02 1.366e-02 1.492e-02 
*LOADS
*RC U1132:B 4.075e-04
*RC U1235:C 4.075e-04
*RC o_Y_DATA_VALID 4.075e-04
*END

*R_NET i_Y_ACK 6.690e-03
*DRIVER i_Y_ACK
*CELL NULL
*C2_R1_C1 3.345e-03 7.940e-03 3.345e-03 
*LOADS
*RC U1132:A 5.312e-05
*END

*R_NET r_add_A\[31\] 1.400e-02
*DRIVER r_add_A_reg_31_:Q
*CELL fd2qd1_hd
*C2_R1_C1 7.000e-03 1.157e-02 7.000e-03 
*LOADS
*RC U1240:C 1.620e-04
*RC add/a_reg_31_:D 1.620e-04
*END

*R_NET r_add_A\[30\] 1.400e-02
*DRIVER r_add_A_reg_30_:Q
*CELL fd2qd1_hd
*C2_R1_C1 7.000e-03 1.157e-02 7.000e-03 
*LOADS
*RC U1400:C 1.620e-04
*RC add/a_reg_30_:D 1.620e-04
*END

*R_NET r_add_A\[29\] 1.400e-02
*DRIVER r_add_A_reg_29_:Q
*CELL fd2qd1_hd
*C2_R1_C1 7.000e-03 1.157e-02 7.000e-03 
*LOADS
*RC U1397:C 1.620e-04
*RC add/a_reg_29_:D 1.620e-04
*END

*R_NET r_add_A\[28\] 1.400e-02
*DRIVER r_add_A_reg_28_:Q
*CELL fd2qd1_hd
*C2_R1_C1 7.000e-03 1.157e-02 7.000e-03 
*LOADS
*RC U1394:C 1.620e-04
*RC add/a_reg_28_:D 1.620e-04
*END

*R_NET r_add_A\[27\] 1.400e-02
*DRIVER r_add_A_reg_27_:Q
*CELL fd2qd1_hd
*C2_R1_C1 7.000e-03 1.157e-02 7.000e-03 
*LOADS
*RC U1391:C 1.620e-04
*RC add/a_reg_27_:D 1.620e-04
*END

*R_NET r_add_A\[26\] 1.400e-02
*DRIVER r_add_A_reg_26_:Q
*CELL fd2qd1_hd
*C2_R1_C1 7.000e-03 1.157e-02 7.000e-03 
*LOADS
*RC U1388:C 1.620e-04
*RC add/a_reg_26_:D 1.620e-04
*END

*R_NET r_add_A\[25\] 1.400e-02
*DRIVER r_add_A_reg_25_:Q
*CELL fd2qd1_hd
*C2_R1_C1 7.000e-03 1.157e-02 7.000e-03 
*LOADS
*RC U1385:C 1.620e-04
*RC add/a_reg_25_:D 1.620e-04
*END

*R_NET r_add_A\[24\] 1.400e-02
*DRIVER r_add_A_reg_24_:Q
*CELL fd2qd1_hd
*C2_R1_C1 7.000e-03 1.157e-02 7.000e-03 
*LOADS
*RC U1382:C 1.620e-04
*RC add/a_reg_24_:D 1.620e-04
*END

*R_NET r_add_A\[23\] 1.400e-02
*DRIVER r_add_A_reg_23_:Q
*CELL fd2qd1_hd
*C2_R1_C1 7.000e-03 1.157e-02 7.000e-03 
*LOADS
*RC U1379:C 1.620e-04
*RC add/a_reg_23_:D 1.620e-04
*END

*R_NET r_add_A\[22\] 1.400e-02
*DRIVER r_add_A_reg_22_:Q
*CELL fd2qd1_hd
*C2_R1_C1 7.000e-03 1.157e-02 7.000e-03 
*LOADS
*RC U1376:C 1.620e-04
*RC add/a_reg_22_:D 1.620e-04
*END

*R_NET r_add_A\[21\] 1.400e-02
*DRIVER r_add_A_reg_21_:Q
*CELL fd2qd1_hd
*C2_R1_C1 7.000e-03 1.157e-02 7.000e-03 
*LOADS
*RC U1373:C 1.620e-04
*RC add/a_reg_21_:D 1.620e-04
*END

*R_NET r_add_A\[20\] 1.400e-02
*DRIVER r_add_A_reg_20_:Q
*CELL fd2qd1_hd
*C2_R1_C1 7.000e-03 1.157e-02 7.000e-03 
*LOADS
*RC U1370:C 1.620e-04
*RC add/a_reg_20_:D 1.620e-04
*END

*R_NET r_add_A\[19\] 1.400e-02
*DRIVER r_add_A_reg_19_:Q
*CELL fd2qd1_hd
*C2_R1_C1 7.000e-03 1.157e-02 7.000e-03 
*LOADS
*RC U1367:C 1.620e-04
*RC add/a_reg_19_:D 1.620e-04
*END

*R_NET r_add_A\[18\] 1.400e-02
*DRIVER r_add_A_reg_18_:Q
*CELL fd2qd1_hd
*C2_R1_C1 7.000e-03 1.157e-02 7.000e-03 
*LOADS
*RC U1364:C 1.620e-04
*RC add/a_reg_18_:D 1.620e-04
*END

*R_NET r_add_A\[17\] 1.400e-02
*DRIVER r_add_A_reg_17_:Q
*CELL fd2qd1_hd
*C2_R1_C1 7.000e-03 1.157e-02 7.000e-03 
*LOADS
*RC U1361:C 1.620e-04
*RC add/a_reg_17_:D 1.620e-04
*END

*R_NET r_add_A\[16\] 1.400e-02
*DRIVER r_add_A_reg_16_:Q
*CELL fd2qd1_hd
*C2_R1_C1 7.000e-03 1.157e-02 7.000e-03 
*LOADS
*RC U1358:C 1.620e-04
*RC add/a_reg_16_:D 1.620e-04
*END

*R_NET r_add_A\[15\] 1.400e-02
*DRIVER r_add_A_reg_15_:Q
*CELL fd2qd1_hd
*C2_R1_C1 7.000e-03 1.157e-02 7.000e-03 
*LOADS
*RC U1355:C 1.620e-04
*RC add/a_reg_15_:D 1.620e-04
*END

*R_NET r_add_A\[14\] 1.400e-02
*DRIVER r_add_A_reg_14_:Q
*CELL fd2qd1_hd
*C2_R1_C1 7.000e-03 1.157e-02 7.000e-03 
*LOADS
*RC U1352:C 1.620e-04
*RC add/a_reg_14_:D 1.620e-04
*END

*R_NET r_add_A\[13\] 1.400e-02
*DRIVER r_add_A_reg_13_:Q
*CELL fd2qd1_hd
*C2_R1_C1 7.000e-03 1.157e-02 7.000e-03 
*LOADS
*RC U1349:C 1.620e-04
*RC add/a_reg_13_:D 1.620e-04
*END

*R_NET r_add_A\[12\] 1.400e-02
*DRIVER r_add_A_reg_12_:Q
*CELL fd2qd1_hd
*C2_R1_C1 7.000e-03 1.157e-02 7.000e-03 
*LOADS
*RC U1346:C 1.620e-04
*RC add/a_reg_12_:D 1.620e-04
*END

*R_NET r_add_A\[11\] 1.400e-02
*DRIVER r_add_A_reg_11_:Q
*CELL fd2qd1_hd
*C2_R1_C1 7.000e-03 1.157e-02 7.000e-03 
*LOADS
*RC U1343:C 1.620e-04
*RC add/a_reg_11_:D 1.620e-04
*END

*R_NET r_add_A\[10\] 1.400e-02
*DRIVER r_add_A_reg_10_:Q
*CELL fd2qd1_hd
*C2_R1_C1 7.000e-03 1.157e-02 7.000e-03 
*LOADS
*RC U1340:C 1.620e-04
*RC add/a_reg_10_:D 1.620e-04
*END

*R_NET r_add_A\[9\] 1.400e-02
*DRIVER r_add_A_reg_9_:Q
*CELL fd2qd1_hd
*C2_R1_C1 7.000e-03 1.157e-02 7.000e-03 
*LOADS
*RC U1337:C 1.620e-04
*RC add/a_reg_9_:D 1.620e-04
*END

*R_NET r_add_A\[8\] 1.400e-02
*DRIVER r_add_A_reg_8_:Q
*CELL fd2qd1_hd
*C2_R1_C1 7.000e-03 1.157e-02 7.000e-03 
*LOADS
*RC U1334:C 1.620e-04
*RC add/a_reg_8_:D 1.620e-04
*END

*R_NET r_add_A\[7\] 1.400e-02
*DRIVER r_add_A_reg_7_:Q
*CELL fd2qd1_hd
*C2_R1_C1 7.000e-03 1.157e-02 7.000e-03 
*LOADS
*RC U1331:C 1.620e-04
*RC add/a_reg_7_:D 1.620e-04
*END

*R_NET r_add_A\[6\] 1.400e-02
*DRIVER r_add_A_reg_6_:Q
*CELL fd2qd1_hd
*C2_R1_C1 7.000e-03 1.157e-02 7.000e-03 
*LOADS
*RC U1328:C 1.620e-04
*RC add/a_reg_6_:D 1.620e-04
*END

*R_NET r_add_A\[5\] 1.400e-02
*DRIVER r_add_A_reg_5_:Q
*CELL fd2qd1_hd
*C2_R1_C1 7.000e-03 1.157e-02 7.000e-03 
*LOADS
*RC U1325:C 1.620e-04
*RC add/a_reg_5_:D 1.620e-04
*END

*R_NET r_add_A\[4\] 1.400e-02
*DRIVER r_add_A_reg_4_:Q
*CELL fd2qd1_hd
*C2_R1_C1 7.000e-03 1.157e-02 7.000e-03 
*LOADS
*RC U1322:C 1.620e-04
*RC add/a_reg_4_:D 1.620e-04
*END

*R_NET r_add_A\[3\] 1.400e-02
*DRIVER r_add_A_reg_3_:Q
*CELL fd2qd1_hd
*C2_R1_C1 7.000e-03 1.157e-02 7.000e-03 
*LOADS
*RC U1319:C 1.620e-04
*RC add/a_reg_3_:D 1.620e-04
*END

*R_NET r_add_A\[2\] 1.400e-02
*DRIVER r_add_A_reg_2_:Q
*CELL fd2qd1_hd
*C2_R1_C1 7.000e-03 1.157e-02 7.000e-03 
*LOADS
*RC U1316:C 1.620e-04
*RC add/a_reg_2_:D 1.620e-04
*END

*R_NET r_add_A\[1\] 1.400e-02
*DRIVER r_add_A_reg_1_:Q
*CELL fd2qd1_hd
*C2_R1_C1 7.000e-03 1.157e-02 7.000e-03 
*LOADS
*RC U1313:C 1.620e-04
*RC add/a_reg_1_:D 1.620e-04
*END

*R_NET r_add_A\[0\] 1.400e-02
*DRIVER r_add_A_reg_0_:Q
*CELL fd2qd1_hd
*C2_R1_C1 7.000e-03 1.157e-02 7.000e-03 
*LOADS
*RC U1237:C 1.620e-04
*RC add/a_reg_0_:D 1.620e-04
*END

*R_NET r_add_B\[31\] 1.291e-02
*DRIVER r_add_B_reg_31_:Q
*CELL fd2qd1_hd
*C2_R1_C1 6.455e-03 1.157e-02 6.455e-03 
*LOADS
*RC U1036:D 1.494e-04
*RC add/b_reg_31_:D 1.494e-04
*END

*R_NET r_add_B\[30\] 1.291e-02
*DRIVER r_add_B_reg_30_:Q
*CELL fd2qd1_hd
*C2_R1_C1 6.455e-03 1.157e-02 6.455e-03 
*LOADS
*RC U1035:D 1.494e-04
*RC add/b_reg_30_:D 1.494e-04
*END

*R_NET r_add_B\[29\] 1.291e-02
*DRIVER r_add_B_reg_29_:Q
*CELL fd2qd1_hd
*C2_R1_C1 6.455e-03 1.157e-02 6.455e-03 
*LOADS
*RC U1038:D 1.494e-04
*RC add/b_reg_29_:D 1.494e-04
*END

*R_NET r_add_B\[28\] 1.291e-02
*DRIVER r_add_B_reg_28_:Q
*CELL fd2qd1_hd
*C2_R1_C1 6.455e-03 1.157e-02 6.455e-03 
*LOADS
*RC U1041:D 1.494e-04
*RC add/b_reg_28_:D 1.494e-04
*END

*R_NET r_add_B\[27\] 1.291e-02
*DRIVER r_add_B_reg_27_:Q
*CELL fd2qd1_hd
*C2_R1_C1 6.455e-03 1.157e-02 6.455e-03 
*LOADS
*RC U1044:D 1.494e-04
*RC add/b_reg_27_:D 1.494e-04
*END

*R_NET r_add_B\[26\] 1.291e-02
*DRIVER r_add_B_reg_26_:Q
*CELL fd2qd1_hd
*C2_R1_C1 6.455e-03 1.157e-02 6.455e-03 
*LOADS
*RC U1039:D 1.494e-04
*RC add/b_reg_26_:D 1.494e-04
*END

*R_NET r_add_B\[25\] 1.291e-02
*DRIVER r_add_B_reg_25_:Q
*CELL fd2qd1_hd
*C2_R1_C1 6.455e-03 1.157e-02 6.455e-03 
*LOADS
*RC U1042:D 1.494e-04
*RC add/b_reg_25_:D 1.494e-04
*END

*R_NET r_add_B\[24\] 1.291e-02
*DRIVER r_add_B_reg_24_:Q
*CELL fd2qd1_hd
*C2_R1_C1 6.455e-03 1.157e-02 6.455e-03 
*LOADS
*RC U1037:D 1.494e-04
*RC add/b_reg_24_:D 1.494e-04
*END

*R_NET r_add_B\[23\] 1.291e-02
*DRIVER r_add_B_reg_23_:Q
*CELL fd2qd1_hd
*C2_R1_C1 6.455e-03 1.157e-02 6.455e-03 
*LOADS
*RC U1040:D 1.494e-04
*RC add/b_reg_23_:D 1.494e-04
*END

*R_NET r_add_B\[22\] 1.291e-02
*DRIVER r_add_B_reg_22_:Q
*CELL fd2qd1_hd
*C2_R1_C1 6.455e-03 1.157e-02 6.455e-03 
*LOADS
*RC U1043:D 1.494e-04
*RC add/b_reg_22_:D 1.494e-04
*END

*R_NET r_add_B\[21\] 1.291e-02
*DRIVER r_add_B_reg_21_:Q
*CELL fd2qd1_hd
*C2_R1_C1 6.455e-03 1.157e-02 6.455e-03 
*LOADS
*RC U1076:D 1.494e-04
*RC add/b_reg_21_:D 1.494e-04
*END

*R_NET r_add_B\[20\] 1.291e-02
*DRIVER r_add_B_reg_20_:Q
*CELL fd2qd1_hd
*C2_R1_C1 6.455e-03 1.157e-02 6.455e-03 
*LOADS
*RC U1078:D 1.494e-04
*RC add/b_reg_20_:D 1.494e-04
*END

*R_NET r_add_B\[19\] 1.291e-02
*DRIVER r_add_B_reg_19_:Q
*CELL fd2qd1_hd
*C2_R1_C1 6.455e-03 1.157e-02 6.455e-03 
*LOADS
*RC U1077:D 1.494e-04
*RC add/b_reg_19_:D 1.494e-04
*END

*R_NET r_add_B\[18\] 1.291e-02
*DRIVER r_add_B_reg_18_:Q
*CELL fd2qd1_hd
*C2_R1_C1 6.455e-03 1.157e-02 6.455e-03 
*LOADS
*RC U1079:D 1.494e-04
*RC add/b_reg_18_:D 1.494e-04
*END

*R_NET r_add_B\[17\] 1.291e-02
*DRIVER r_add_B_reg_17_:Q
*CELL fd2qd1_hd
*C2_R1_C1 6.455e-03 1.157e-02 6.455e-03 
*LOADS
*RC U1075:D 1.494e-04
*RC add/b_reg_17_:D 1.494e-04
*END

*R_NET r_add_B\[16\] 1.291e-02
*DRIVER r_add_B_reg_16_:Q
*CELL fd2qd1_hd
*C2_R1_C1 6.455e-03 1.157e-02 6.455e-03 
*LOADS
*RC U1080:D 1.494e-04
*RC add/b_reg_16_:D 1.494e-04
*END

*R_NET r_add_B\[15\] 1.291e-02
*DRIVER r_add_B_reg_15_:Q
*CELL fd2qd1_hd
*C2_R1_C1 6.455e-03 1.157e-02 6.455e-03 
*LOADS
*RC U1092:D 1.494e-04
*RC add/b_reg_15_:D 1.494e-04
*END

*R_NET r_add_B\[14\] 1.291e-02
*DRIVER r_add_B_reg_14_:Q
*CELL fd2qd1_hd
*C2_R1_C1 6.455e-03 1.157e-02 6.455e-03 
*LOADS
*RC U1086:D 1.494e-04
*RC add/b_reg_14_:D 1.494e-04
*END

*R_NET r_add_B\[13\] 1.291e-02
*DRIVER r_add_B_reg_13_:Q
*CELL fd2qd1_hd
*C2_R1_C1 6.455e-03 1.157e-02 6.455e-03 
*LOADS
*RC U1089:D 1.494e-04
*RC add/b_reg_13_:D 1.494e-04
*END

*R_NET r_add_B\[12\] 1.291e-02
*DRIVER r_add_B_reg_12_:Q
*CELL fd2qd1_hd
*C2_R1_C1 6.455e-03 1.157e-02 6.455e-03 
*LOADS
*RC U1091:D 1.494e-04
*RC add/b_reg_12_:D 1.494e-04
*END

*R_NET r_add_B\[11\] 1.291e-02
*DRIVER r_add_B_reg_11_:Q
*CELL fd2qd1_hd
*C2_R1_C1 6.455e-03 1.157e-02 6.455e-03 
*LOADS
*RC U1090:D 1.494e-04
*RC add/b_reg_11_:D 1.494e-04
*END

*R_NET r_add_B\[10\] 1.291e-02
*DRIVER r_add_B_reg_10_:Q
*CELL fd2qd1_hd
*C2_R1_C1 6.455e-03 1.157e-02 6.455e-03 
*LOADS
*RC U1081:D 1.494e-04
*RC add/b_reg_10_:D 1.494e-04
*END

*R_NET r_add_B\[9\] 1.291e-02
*DRIVER r_add_B_reg_9_:Q
*CELL fd2qd1_hd
*C2_R1_C1 6.455e-03 1.157e-02 6.455e-03 
*LOADS
*RC U1085:D 1.494e-04
*RC add/b_reg_9_:D 1.494e-04
*END

*R_NET r_add_B\[8\] 1.291e-02
*DRIVER r_add_B_reg_8_:Q
*CELL fd2qd1_hd
*C2_R1_C1 6.455e-03 1.157e-02 6.455e-03 
*LOADS
*RC U1087:D 1.494e-04
*RC add/b_reg_8_:D 1.494e-04
*END

*R_NET r_add_B\[7\] 1.291e-02
*DRIVER r_add_B_reg_7_:Q
*CELL fd2qd1_hd
*C2_R1_C1 6.455e-03 1.157e-02 6.455e-03 
*LOADS
*RC U1084:D 1.494e-04
*RC add/b_reg_7_:D 1.494e-04
*END

*R_NET r_add_B\[6\] 1.291e-02
*DRIVER r_add_B_reg_6_:Q
*CELL fd2qd1_hd
*C2_R1_C1 6.455e-03 1.157e-02 6.455e-03 
*LOADS
*RC U1083:D 1.494e-04
*RC add/b_reg_6_:D 1.494e-04
*END

*R_NET r_add_B\[5\] 1.291e-02
*DRIVER r_add_B_reg_5_:Q
*CELL fd2qd1_hd
*C2_R1_C1 6.455e-03 1.157e-02 6.455e-03 
*LOADS
*RC U1082:D 1.494e-04
*RC add/b_reg_5_:D 1.494e-04
*END

*R_NET r_add_B\[4\] 1.291e-02
*DRIVER r_add_B_reg_4_:Q
*CELL fd2qd1_hd
*C2_R1_C1 6.455e-03 1.157e-02 6.455e-03 
*LOADS
*RC U1088:D 1.494e-04
*RC add/b_reg_4_:D 1.494e-04
*END

*R_NET r_add_B\[3\] 1.291e-02
*DRIVER r_add_B_reg_3_:Q
*CELL fd2qd1_hd
*C2_R1_C1 6.455e-03 1.157e-02 6.455e-03 
*LOADS
*RC U1046:D 1.494e-04
*RC add/b_reg_3_:D 1.494e-04
*END

*R_NET r_add_B\[2\] 1.291e-02
*DRIVER r_add_B_reg_2_:Q
*CELL fd2qd1_hd
*C2_R1_C1 6.455e-03 1.157e-02 6.455e-03 
*LOADS
*RC U1047:D 1.494e-04
*RC add/b_reg_2_:D 1.494e-04
*END

*R_NET r_add_B\[1\] 1.291e-02
*DRIVER r_add_B_reg_1_:Q
*CELL fd2qd1_hd
*C2_R1_C1 6.455e-03 1.157e-02 6.455e-03 
*LOADS
*RC U1048:D 1.494e-04
*RC add/b_reg_1_:D 1.494e-04
*END

*R_NET r_add_B\[0\] 1.291e-02
*DRIVER r_add_B_reg_0_:Q
*CELL fd2qd1_hd
*C2_R1_C1 6.455e-03 1.157e-02 6.455e-03 
*LOADS
*RC U1045:D 1.494e-04
*RC add/b_reg_0_:D 1.494e-04
*END

*R_NET r_add_AB_STB 1.393e-02
*DRIVER r_add_AB_STB_reg:Q
*CELL fd2qd1_hd
*C2_R1_C1 6.965e-03 1.157e-02 6.965e-03 
*LOADS
*RC U1310:A 1.612e-04
*RC add/U912:B 1.612e-04
*END

*R_NET w_add_AB_ACK 2.078e-02
*DRIVER add/o_AB_ACK_reg:Q
*CELL fd1qd1_hd
*C2_R1_C1 1.039e-02 1.366e-02 1.039e-02 
*LOADS
*RC add/U912:C 2.839e-04
*RC add/U117:A 2.839e-04
*RC U1120:B 2.839e-04
*END

*R_NET w_add_Z\[31\] 1.966e-02
*DRIVER add/o_Z_reg_31_:Q
*CELL fd1eqd1_hd
*C2_R1_C1 9.830e-03 1.366e-02 9.830e-03 
*LOADS
*RC U1033:A 2.686e-04
*RC U1036:B 2.686e-04
*RC U1243:A 2.686e-04
*END

*R_NET w_add_Z\[30\] 1.966e-02
*DRIVER add/o_Z_reg_30_:Q
*CELL fd1eqd1_hd
*C2_R1_C1 9.830e-03 1.366e-02 9.830e-03 
*LOADS
*RC U961:A 2.686e-04
*RC U1035:B 2.686e-04
*RC U1307:A 2.686e-04
*END

*R_NET w_add_Z\[29\] 1.966e-02
*DRIVER add/o_Z_reg_29_:Q
*CELL fd1eqd1_hd
*C2_R1_C1 9.830e-03 1.366e-02 9.830e-03 
*LOADS
*RC U1038:B 2.686e-04
*RC U1207:A 2.686e-04
*RC U1305:A 2.686e-04
*END

*R_NET w_add_Z\[28\] 1.966e-02
*DRIVER add/o_Z_reg_28_:Q
*CELL fd1eqd1_hd
*C2_R1_C1 9.830e-03 1.366e-02 9.830e-03 
*LOADS
*RC U1041:B 2.686e-04
*RC U1205:A 2.686e-04
*RC U1303:A 2.686e-04
*END

*R_NET w_add_Z\[27\] 1.966e-02
*DRIVER add/o_Z_reg_27_:Q
*CELL fd1eqd1_hd
*C2_R1_C1 9.830e-03 1.366e-02 9.830e-03 
*LOADS
*RC U1044:B 2.686e-04
*RC U1203:A 2.686e-04
*RC U1301:A 2.686e-04
*END

*R_NET w_add_Z\[26\] 1.966e-02
*DRIVER add/o_Z_reg_26_:Q
*CELL fd1eqd1_hd
*C2_R1_C1 9.830e-03 1.366e-02 9.830e-03 
*LOADS
*RC U1039:B 2.686e-04
*RC U1201:A 2.686e-04
*RC U1299:A 2.686e-04
*END

*R_NET w_add_Z\[25\] 1.966e-02
*DRIVER add/o_Z_reg_25_:Q
*CELL fd1eqd1_hd
*C2_R1_C1 9.830e-03 1.366e-02 9.830e-03 
*LOADS
*RC U1042:B 2.686e-04
*RC U1199:A 2.686e-04
*RC U1297:A 2.686e-04
*END

*R_NET w_add_Z\[24\] 1.966e-02
*DRIVER add/o_Z_reg_24_:Q
*CELL fd1eqd1_hd
*C2_R1_C1 9.830e-03 1.366e-02 9.830e-03 
*LOADS
*RC U978:A 2.686e-04
*RC U1037:B 2.686e-04
*RC U1295:A 2.686e-04
*END

*R_NET w_add_Z\[23\] 1.966e-02
*DRIVER add/o_Z_reg_23_:Q
*CELL fd1eqd1_hd
*C2_R1_C1 9.830e-03 1.366e-02 9.830e-03 
*LOADS
*RC U977:A 2.686e-04
*RC U1040:B 2.686e-04
*RC U1293:A 2.686e-04
*END

*R_NET w_add_Z\[22\] 1.966e-02
*DRIVER add/o_Z_reg_22_:Q
*CELL fd1eqd1_hd
*C2_R1_C1 9.830e-03 1.366e-02 9.830e-03 
*LOADS
*RC U967:A 2.686e-04
*RC U1043:B 2.686e-04
*RC U1291:A 2.686e-04
*END

*R_NET w_add_Z\[21\] 1.966e-02
*DRIVER add/o_Z_reg_21_:Q
*CELL fd1eqd1_hd
*C2_R1_C1 9.830e-03 1.366e-02 9.830e-03 
*LOADS
*RC U965:A 2.686e-04
*RC U1076:B 2.686e-04
*RC U1289:A 2.686e-04
*END

*R_NET w_add_Z\[20\] 1.966e-02
*DRIVER add/o_Z_reg_20_:Q
*CELL fd1eqd1_hd
*C2_R1_C1 9.830e-03 1.366e-02 9.830e-03 
*LOADS
*RC U963:A 2.686e-04
*RC U1078:B 2.686e-04
*RC U1287:A 2.686e-04
*END

*R_NET w_add_Z\[19\] 1.966e-02
*DRIVER add/o_Z_reg_19_:Q
*CELL fd1eqd1_hd
*C2_R1_C1 9.830e-03 1.366e-02 9.830e-03 
*LOADS
*RC U966:A 2.686e-04
*RC U1077:B 2.686e-04
*RC U1285:A 2.686e-04
*END

*R_NET w_add_Z\[18\] 1.966e-02
*DRIVER add/o_Z_reg_18_:Q
*CELL fd1eqd1_hd
*C2_R1_C1 9.830e-03 1.366e-02 9.830e-03 
*LOADS