*SPEF "IEEE 1481-1999"
*DESIGN "sensor_core"
*DATE "Mon May  4 13:35:15 2020"
*VENDOR "SYNOPSYS INC"
*PROGRAM "Synopsys Design Compiler cmos"
*VERSION "F-2011.09-SP5-3"
*DESIGN_FLOW "SYNTHESIS"
*DIVIDER /
*DELIMITER :
*BUS_DELIMITER []
*T_UNIT 1.0 NS
*C_UNIT 1.0 PF
*R_UNIT 1.0 KOHM
*L_UNIT 1.0 HENRY

*PORTS

o_UART_DATA_TX\[55\] O *L 0.000e+00 *S 7.051e-02 1.026e-01 
o_UART_DATA_TX\[54\] O *L 0.000e+00 *S 7.016e-02 1.022e-01 
o_UART_DATA_TX\[53\] O *L 0.000e+00 *S 7.095e-02 1.032e-01 
o_UART_DATA_TX\[52\] O *L 0.000e+00 *S 3.617e-02 2.724e-02 
o_UART_DATA_TX\[51\] O *L 0.000e+00 *S 7.016e-02 1.022e-01 
o_UART_DATA_TX\[50\] O *L 0.000e+00 *S 7.051e-02 1.026e-01 
o_UART_DATA_TX\[49\] O *L 0.000e+00 *S 7.051e-02 1.026e-01 
o_UART_DATA_TX\[48\] O *L 0.000e+00 *S 7.016e-02 1.022e-01 
o_UART_DATA_TX\[47\] O *L 0.000e+00 *S 7.016e-02 1.022e-01 
o_UART_DATA_TX\[46\] O *L 0.000e+00 *S 7.016e-02 1.022e-01 
o_UART_DATA_TX\[45\] O *L 0.000e+00 *S 7.016e-02 1.022e-01 
o_UART_DATA_TX\[44\] O *L 0.000e+00 *S 7.016e-02 1.022e-01 
o_UART_DATA_TX\[43\] O *L 0.000e+00 *S 7.016e-02 1.022e-01 
o_UART_DATA_TX\[42\] O *L 0.000e+00 *S 7.016e-02 1.022e-01 
o_UART_DATA_TX\[41\] O *L 0.000e+00 *S 7.016e-02 1.022e-01 
o_UART_DATA_TX\[40\] O *L 0.000e+00 *S 7.016e-02 1.022e-01 
o_UART_DATA_TX\[39\] O *L 0.000e+00 *S 7.016e-02 1.022e-01 
o_UART_DATA_TX\[38\] O *L 0.000e+00 *S 7.016e-02 1.022e-01 
o_UART_DATA_TX\[37\] O *L 0.000e+00 *S 7.016e-02 1.022e-01 
o_UART_DATA_TX\[36\] O *L 0.000e+00 *S 7.016e-02 1.022e-01 
o_UART_DATA_TX\[35\] O *L 0.000e+00 *S 7.016e-02 1.022e-01 
o_UART_DATA_TX\[34\] O *L 0.000e+00 *S 7.016e-02 1.022e-01 
o_UART_DATA_TX\[33\] O *L 0.000e+00 *S 7.016e-02 1.022e-01 
o_UART_DATA_TX\[32\] O *L 0.000e+00 *S 7.016e-02 1.022e-01 
o_UART_DATA_TX\[31\] O *L 0.000e+00 *S 6.972e-02 1.016e-01 
o_UART_DATA_TX\[30\] O *L 0.000e+00 *S 6.972e-02 1.016e-01 
o_UART_DATA_TX\[29\] O *L 0.000e+00 *S 6.972e-02 1.016e-01 
o_UART_DATA_TX\[28\] O *L 0.000e+00 *S 6.972e-02 1.016e-01 
o_UART_DATA_TX\[27\] O *L 0.000e+00 *S 6.972e-02 1.016e-01 
o_UART_DATA_TX\[26\] O *L 0.000e+00 *S 6.972e-02 1.016e-01 
o_UART_DATA_TX\[25\] O *L 0.000e+00 *S 6.972e-02 1.016e-01 
o_UART_DATA_TX\[24\] O *L 0.000e+00 *S 6.972e-02 1.016e-01 
o_UART_DATA_TX\[23\] O *L 0.000e+00 *S 3.617e-02 2.724e-02 
o_UART_DATA_TX\[22\] O *L 0.000e+00 *S 3.617e-02 2.724e-02 
o_UART_DATA_TX\[21\] O *L 0.000e+00 *S 3.617e-02 2.724e-02 
o_UART_DATA_TX\[20\] O *L 0.000e+00 *S 3.617e-02 2.724e-02 
o_UART_DATA_TX\[19\] O *L 0.000e+00 *S 6.972e-02 1.016e-01 
o_UART_DATA_TX\[18\] O *L 0.000e+00 *S 6.972e-02 1.016e-01 
o_UART_DATA_TX\[17\] O *L 0.000e+00 *S 6.972e-02 1.016e-01 
o_UART_DATA_TX\[16\] O *L 0.000e+00 *S 6.972e-02 1.016e-01 
o_UART_DATA_TX\[15\] O *L 0.000e+00 *S 6.972e-02 1.016e-01 
o_UART_DATA_TX\[14\] O *L 0.000e+00 *S 6.972e-02 1.016e-01 
o_UART_DATA_TX\[13\] O *L 0.000e+00 *S 6.972e-02 1.016e-01 
o_UART_DATA_TX\[12\] O *L 0.000e+00 *S 6.972e-02 1.016e-01 
o_UART_DATA_TX\[11\] O *L 0.000e+00 *S 6.972e-02 1.016e-01 
o_UART_DATA_TX\[10\] O *L 0.000e+00 *S 6.972e-02 1.016e-01 
o_UART_DATA_TX\[9\] O *L 0.000e+00 *S 6.972e-02 1.016e-01 
o_UART_DATA_TX\[8\] O *L 0.000e+00 *S 6.972e-02 1.016e-01 
o_UART_DATA_TX\[7\] O *L 0.000e+00 *S 7.051e-02 1.026e-01 
o_UART_DATA_TX\[6\] O *L 0.000e+00 *S 3.617e-02 2.724e-02 
o_UART_DATA_TX\[5\] O *L 0.000e+00 *S 7.051e-02 1.026e-01 
o_UART_DATA_TX\[4\] O *L 0.000e+00 *S 7.051e-02 1.026e-01 
o_UART_DATA_TX\[3\] O *L 0.000e+00 *S 7.051e-02 1.026e-01 
o_UART_DATA_TX\[2\] O *L 0.000e+00 *S 3.617e-02 2.724e-02 
o_UART_DATA_TX\[1\] O *L 0.000e+00 *S 7.051e-02 1.026e-01 
o_UART_DATA_TX\[0\] O *L 0.000e+00 *S 7.051e-02 1.026e-01 
o_UART_DATA_TX_VALID O *L 0.000e+00 *S 7.113e-02 1.034e-01 
i_UART_DATA_TX_READY I *L 0.000e+00 *S 0.000e+00 0.000e+00 
i_UART_DATA_RX\[15\] I *L 0.000e+00 *S 0.000e+00 0.000e+00 
i_UART_DATA_RX\[14\] I *L 0.000e+00 *S 0.000e+00 0.000e+00 
i_UART_DATA_RX\[13\] I *L 0.000e+00 *S 0.000e+00 0.000e+00 
i_UART_DATA_RX\[12\] I *L 0.000e+00 *S 0.000e+00 0.000e+00 
i_UART_DATA_RX\[11\] I *L 0.000e+00 *S 0.000e+00 0.000e+00 
i_UART_DATA_RX\[10\] I *L 0.000e+00 *S 0.000e+00 0.000e+00 
i_UART_DATA_RX\[9\] I *L 0.000e+00 *S 0.000e+00 0.000e+00 
i_UART_DATA_RX\[8\] I *L 0.000e+00 *S 0.000e+00 0.000e+00 
i_UART_DATA_RX\[7\] I *L 0.000e+00 *S 0.000e+00 0.000e+00 
i_UART_DATA_RX\[6\] I *L 0.000e+00 *S 0.000e+00 0.000e+00 
i_UART_DATA_RX\[5\] I *L 0.000e+00 *S 0.000e+00 0.000e+00 
i_UART_DATA_RX\[4\] I *L 0.000e+00 *S 0.000e+00 0.000e+00 
i_UART_DATA_RX\[3\] I *L 0.000e+00 *S 0.000e+00 0.000e+00 
i_UART_DATA_RX\[2\] I *L 0.000e+00 *S 0.000e+00 0.000e+00 
i_UART_DATA_RX\[1\] I *L 0.000e+00 *S 0.000e+00 0.000e+00 
i_UART_DATA_RX\[0\] I *L 0.000e+00 *S 0.000e+00 0.000e+00 
i_UART_DATA_RX_VALID I *L 0.000e+00 *S 0.000e+00 0.000e+00 
i_MPR121_DATA_OUT\[7\] I *L 0.000e+00 *S 0.000e+00 0.000e+00 
i_MPR121_DATA_OUT\[6\] I *L 0.000e+00 *S 0.000e+00 0.000e+00 
i_MPR121_DATA_OUT\[5\] I *L 0.000e+00 *S 0.000e+00 0.000e+00 
i_MPR121_DATA_OUT\[4\] I *L 0.000e+00 *S 0.000e+00 0.000e+00 
i_MPR121_DATA_OUT\[3\] I *L 0.000e+00 *S 0.000e+00 0.000e+00 
i_MPR121_DATA_OUT\[2\] I *L 0.000e+00 *S 0.000e+00 0.000e+00 
i_MPR121_DATA_OUT\[1\] I *L 0.000e+00 *S 0.000e+00 0.000e+00 
i_MPR121_DATA_OUT\[0\] I *L 0.000e+00 *S 0.000e+00 0.000e+00 
o_MPR121_REG_ADDR\[7\] O *L 0.000e+00 *S 7.043e-02 1.025e-01 
o_MPR121_REG_ADDR\[6\] O *L 0.000e+00 *S 7.060e-02 1.027e-01 
o_MPR121_REG_ADDR\[5\] O *L 0.000e+00 *S 7.060e-02 1.027e-01 
o_MPR121_REG_ADDR\[4\] O *L 0.000e+00 *S 7.060e-02 1.027e-01 
o_MPR121_REG_ADDR\[3\] O *L 0.000e+00 *S 7.448e-02 1.076e-01 
o_MPR121_REG_ADDR\[2\] O *L 0.000e+00 *S 7.060e-02 1.027e-01 
o_MPR121_REG_ADDR\[1\] O *L 0.000e+00 *S 7.448e-02 1.076e-01 
o_MPR121_REG_ADDR\[0\] O *L 0.000e+00 *S 7.448e-02 1.076e-01 
o_MPR121_DATA_IN\[7\] O *L 0.000e+00 *S 6.972e-02 1.016e-01 
o_MPR121_DATA_IN\[6\] O *L 0.000e+00 *S 6.972e-02 1.016e-01 
o_MPR121_DATA_IN\[5\] O *L 0.000e+00 *S 3.617e-02 2.724e-02 
o_MPR121_DATA_IN\[4\] O *L 0.000e+00 *S 6.972e-02 1.016e-01 
o_MPR121_DATA_IN\[3\] O *L 0.000e+00 *S 6.972e-02 1.016e-01 
o_MPR121_DATA_IN\[2\] O *L 0.000e+00 *S 6.972e-02 1.016e-01 
o_MPR121_DATA_IN\[1\] O *L 0.000e+00 *S 6.972e-02 1.016e-01 
o_MPR121_DATA_IN\[0\] O *L 0.000e+00 *S 6.972e-02 1.016e-01 
o_MPR121_WRITE_ENABLE O *L 0.000e+00 *S 6.822e-02 9.974e-02 
o_MPR121_READ_ENABLE O *L 0.000e+00 *S 7.016e-02 1.022e-01 
i_MPR121_INIT_SET I *L 0.000e+00 *S 0.000e+00 0.000e+00 
i_MPR121_BUSY I *L 0.000e+00 *S 0.000e+00 0.000e+00 
i_MPR121_FAIL I *L 0.000e+00 *S 0.000e+00 0.000e+00 
o_MPR121_TOUCH_STATUS\[11\] O *L 0.000e+00 *S 6.963e-02 1.015e-01 
o_MPR121_TOUCH_STATUS\[10\] O *L 0.000e+00 *S 6.963e-02 1.015e-01 
o_MPR121_TOUCH_STATUS\[9\] O *L 0.000e+00 *S 6.963e-02 1.015e-01 
o_MPR121_TOUCH_STATUS\[8\] O *L 0.000e+00 *S 6.963e-02 1.015e-01 
o_MPR121_TOUCH_STATUS\[7\] O *L 0.000e+00 *S 7.060e-02 1.027e-01 
o_MPR121_TOUCH_STATUS\[6\] O *L 0.000e+00 *S 7.060e-02 1.027e-01 
o_MPR121_TOUCH_STATUS\[5\] O *L 0.000e+00 *S 7.060e-02 1.027e-01 
o_MPR121_TOUCH_STATUS\[4\] O *L 0.000e+00 *S 7.060e-02 1.027e-01 
o_MPR121_TOUCH_STATUS\[3\] O *L 0.000e+00 *S 7.060e-02 1.027e-01 
o_MPR121_TOUCH_STATUS\[2\] O *L 0.000e+00 *S 7.060e-02 1.027e-01 
o_MPR121_TOUCH_STATUS\[1\] O *L 0.000e+00 *S 7.060e-02 1.027e-01 
o_MPR121_TOUCH_STATUS\[0\] O *L 0.000e+00 *S 6.963e-02 1.015e-01 
o_MPR121_ERROR O *L 0.000e+00 *S 7.095e-02 1.032e-01 
i_ADS1292_FILTERED_DATA_OUT\[23\] I *L 0.000e+00 *S 0.000e+00 0.000e+00 
i_ADS1292_FILTERED_DATA_OUT\[22\] I *L 0.000e+00 *S 0.000e+00 0.000e+00 
i_ADS1292_FILTERED_DATA_OUT\[21\] I *L 0.000e+00 *S 0.000e+00 0.000e+00 
i_ADS1292_FILTERED_DATA_OUT\[20\] I *L 0.000e+00 *S 0.000e+00 0.000e+00 
i_ADS1292_FILTERED_DATA_OUT\[19\] I *L 0.000e+00 *S 0.000e+00 0.000e+00 
i_ADS1292_FILTERED_DATA_OUT\[18\] I *L 0.000e+00 *S 0.000e+00 0.000e+00 
i_ADS1292_FILTERED_DATA_OUT\[17\] I *L 0.000e+00 *S 0.000e+00 0.000e+00 
i_ADS1292_FILTERED_DATA_OUT\[16\] I *L 0.000e+00 *S 0.000e+00 0.000e+00 
i_ADS1292_FILTERED_DATA_OUT\[15\] I *L 0.000e+00 *S 0.000e+00 0.000e+00 
i_ADS1292_FILTERED_DATA_OUT\[14\] I *L 0.000e+00 *S 0.000e+00 0.000e+00 
i_ADS1292_FILTERED_DATA_OUT\[13\] I *L 0.000e+00 *S 0.000e+00 0.000e+00 
i_ADS1292_FILTERED_DATA_OUT\[12\] I *L 0.000e+00 *S 0.000e+00 0.000e+00 
i_ADS1292_FILTERED_DATA_OUT\[11\] I *L 0.000e+00 *S 0.000e+00 0.000e+00 
i_ADS1292_FILTERED_DATA_OUT\[10\] I *L 0.000e+00 *S 0.000e+00 0.000e+00 
i_ADS1292_FILTERED_DATA_OUT\[9\] I *L 0.000e+00 *S 0.000e+00 0.000e+00 
i_ADS1292_FILTERED_DATA_OUT\[8\] I *L 0.000e+00 *S 0.000e+00 0.000e+00 
i_ADS1292_FILTERED_DATA_OUT\[7\] I *L 0.000e+00 *S 0.000e+00 0.000e+00 
i_ADS1292_FILTERED_DATA_OUT\[6\] I *L 0.000e+00 *S 0.000e+00 0.000e+00 
i_ADS1292_FILTERED_DATA_OUT\[5\] I *L 0.000e+00 *S 0.000e+00 0.000e+00 
i_ADS1292_FILTERED_DATA_OUT\[4\] I *L 0.000e+00 *S 0.000e+00 0.000e+00 
i_ADS1292_FILTERED_DATA_OUT\[3\] I *L 0.000e+00 *S 0.000e+00 0.000e+00 
i_ADS1292_FILTERED_DATA_OUT\[2\] I *L 0.000e+00 *S 0.000e+00 0.000e+00 
i_ADS1292_FILTERED_DATA_OUT\[1\] I *L 0.000e+00 *S 0.000e+00 0.000e+00 
i_ADS1292_FILTERED_DATA_OUT\[0\] I *L 0.000e+00 *S 0.000e+00 0.000e+00 
o_ADS1292_CONTROL\[2\] O *L 0.000e+00 *S 7.016e-02 1.022e-01 
o_ADS1292_CONTROL\[1\] O *L 0.000e+00 *S 6.990e-02 1.018e-01 
o_ADS1292_CONTROL\[0\] O *L 0.000e+00 *S 7.421e-02 1.073e-01 
o_ADS1292_COMMAND\[7\] O *L 0.000e+00 *S 3.617e-02 2.724e-02 
o_ADS1292_COMMAND\[6\] O *L 0.000e+00 *S 3.617e-02 2.724e-02 
o_ADS1292_COMMAND\[5\] O *L 0.000e+00 *S 3.617e-02 2.724e-02 
o_ADS1292_COMMAND\[4\] O *L 0.000e+00 *S 3.617e-02 2.724e-02 
o_ADS1292_COMMAND\[3\] O *L 0.000e+00 *S 3.617e-02 2.724e-02 
o_ADS1292_COMMAND\[2\] O *L 0.000e+00 *S 3.617e-02 2.724e-02 
o_ADS1292_COMMAND\[1\] O *L 0.000e+00 *S 3.617e-02 2.724e-02 
o_ADS1292_COMMAND\[0\] O *L 0.000e+00 *S 3.617e-02 2.724e-02 
o_ADS1292_REG_ADDR\[7\] O *L 0.000e+00 *S 7.043e-02 1.025e-01 
o_ADS1292_REG_ADDR\[6\] O *L 0.000e+00 *S 7.043e-02 1.025e-01 
o_ADS1292_REG_ADDR\[5\] O *L 0.000e+00 *S 7.060e-02 1.027e-01 
o_ADS1292_REG_ADDR\[4\] O *L 0.000e+00 *S 7.043e-02 1.025e-01 
o_ADS1292_REG_ADDR\[3\] O *L 0.000e+00 *S 7.060e-02 1.027e-01 
o_ADS1292_REG_ADDR\[2\] O *L 0.000e+00 *S 7.060e-02 1.027e-01 
o_ADS1292_REG_ADDR\[1\] O *L 0.000e+00 *S 7.060e-02 1.027e-01 
o_ADS1292_REG_ADDR\[0\] O *L 0.000e+00 *S 7.060e-02 1.027e-01 
o_ADS1292_DATA_IN\[7\] O *L 0.000e+00 *S 6.972e-02 1.016e-01 
o_ADS1292_DATA_IN\[6\] O *L 0.000e+00 *S 6.972e-02 1.016e-01 
o_ADS1292_DATA_IN\[5\] O *L 0.000e+00 *S 6.972e-02 1.016e-01 
o_ADS1292_DATA_IN\[4\] O *L 0.000e+00 *S 6.972e-02 1.016e-01 
o_ADS1292_DATA_IN\[3\] O *L 0.000e+00 *S 6.972e-02 1.016e-01 
o_ADS1292_DATA_IN\[2\] O *L 0.000e+00 *S 6.972e-02 1.016e-01 
o_ADS1292_DATA_IN\[1\] O *L 0.000e+00 *S 6.910e-02 1.009e-01 
o_ADS1292_DATA_IN\[0\] O *L 0.000e+00 *S 6.972e-02 1.016e-01 
i_ADS1292_INIT_SET I *L 0.000e+00 *S 0.000e+00 0.000e+00 
i_ADS1292_FILTERED_DATA_VALID I *L 0.000e+00 *S 0.000e+00 0.000e+00 
o_ADS1292_FILTERED_DATA_ACK O *L 0.000e+00 *S 7.113e-02 1.034e-01 
i_ADS1292_BUSY I *L 0.000e+00 *S 0.000e+00 0.000e+00 
o_CHIP_SET O *L 0.000e+00 *S 1.248e-01 1.641e-01 
o_RUN_SET O *L 0.000e+00 *S 1.236e-01 1.104e-01 
o_CORE_BUSY O *L 0.000e+00 *S 3.370e-02 5.219e-02 
i_CLK I *L 0.000e+00 *S 0.000e+00 0.000e+00 
i_RST I *L 0.000e+00 *S 0.000e+00 0.000e+00 

*R_NET o_UART_DATA_TX\[55\] 7.140e-03
*DRIVER o_UART_DATA_TX_reg_55_:Q
*CELL fd2qd1_hd
*C2_R1_C1 3.570e-03 9.100e-03 3.570e-03 
*LOADS
*RC U1114:A 6.497e-05
*RC o_UART_DATA_TX\[55\] 6.497e-05
*END

*R_NET o_UART_DATA_TX\[54\] 7.100e-03
*DRIVER o_UART_DATA_TX_reg_54_:Q
*CELL fd2qd1_hd
*C2_R1_C1 3.550e-03 9.100e-03 3.550e-03 
*LOADS
*RC U1258:A 6.461e-05
*RC o_UART_DATA_TX\[54\] 6.461e-05
*END

*R_NET o_UART_DATA_TX\[53\] 7.190e-03
*DRIVER o_UART_DATA_TX_reg_53_:Q
*CELL fd2qd1_hd
*C2_R1_C1 3.595e-03 9.100e-03 3.595e-03 
*LOADS
*RC U1163:AN 6.543e-05
*RC o_UART_DATA_TX\[53\] 6.543e-05
*END

*R_NET o_UART_DATA_TX\[51\] 7.100e-03
*DRIVER o_UART_DATA_TX_reg_51_:Q
*CELL fd2qd1_hd
*C2_R1_C1 3.550e-03 9.100e-03 3.550e-03 
*LOADS
*RC U1259:A 6.461e-05
*RC o_UART_DATA_TX\[51\] 6.461e-05
*END

*R_NET o_UART_DATA_TX\[50\] 7.140e-03
*DRIVER o_UART_DATA_TX_reg_50_:Q
*CELL fd2qd1_hd
*C2_R1_C1 3.570e-03 9.100e-03 3.570e-03 
*LOADS
*RC U1088:A 6.497e-05
*RC o_UART_DATA_TX\[50\] 6.497e-05
*END

*R_NET o_UART_DATA_TX\[49\] 7.140e-03
*DRIVER o_UART_DATA_TX_reg_49_:Q
*CELL fd2qd1_hd
*C2_R1_C1 3.570e-03 9.100e-03 3.570e-03 
*LOADS
*RC U1109:A 6.497e-05
*RC o_UART_DATA_TX\[49\] 6.497e-05
*END

*R_NET o_UART_DATA_TX\[48\] 7.100e-03
*DRIVER o_UART_DATA_TX_reg_48_:Q
*CELL fd2qd1_hd
*C2_R1_C1 3.550e-03 9.100e-03 3.550e-03 
*LOADS
*RC U1257:A 6.461e-05
*RC o_UART_DATA_TX\[48\] 6.461e-05
*END

*R_NET o_UART_DATA_TX\[47\] 7.100e-03
*DRIVER o_UART_DATA_TX_reg_47_:Q
*CELL fd2qd1_hd
*C2_R1_C1 3.550e-03 9.100e-03 3.550e-03 
*LOADS
*RC U1358:B 6.461e-05
*RC o_UART_DATA_TX\[47\] 6.461e-05
*END

*R_NET o_UART_DATA_TX\[46\] 7.100e-03
*DRIVER o_UART_DATA_TX_reg_46_:Q
*CELL fd2qd1_hd
*C2_R1_C1 3.550e-03 9.100e-03 3.550e-03 
*LOADS
*RC U1357:B 6.461e-05
*RC o_UART_DATA_TX\[46\] 6.461e-05
*END

*R_NET o_UART_DATA_TX\[45\] 7.100e-03
*DRIVER o_UART_DATA_TX_reg_45_:Q
*CELL fd2qd1_hd
*C2_R1_C1 3.550e-03 9.100e-03 3.550e-03 
*LOADS
*RC U1356:B 6.461e-05
*RC o_UART_DATA_TX\[45\] 6.461e-05
*END

*R_NET o_UART_DATA_TX\[44\] 7.100e-03
*DRIVER o_UART_DATA_TX_reg_44_:Q
*CELL fd2qd1_hd
*C2_R1_C1 3.550e-03 9.100e-03 3.550e-03 
*LOADS
*RC U1355:B 6.461e-05
*RC o_UART_DATA_TX\[44\] 6.461e-05
*END

*R_NET o_UART_DATA_TX\[43\] 7.100e-03
*DRIVER o_UART_DATA_TX_reg_43_:Q
*CELL fd2qd1_hd
*C2_R1_C1 3.550e-03 9.100e-03 3.550e-03 
*LOADS
*RC U1354:B 6.461e-05
*RC o_UART_DATA_TX\[43\] 6.461e-05
*END

*R_NET o_UART_DATA_TX\[42\] 7.100e-03
*DRIVER o_UART_DATA_TX_reg_42_:Q
*CELL fd2qd1_hd
*C2_R1_C1 3.550e-03 9.100e-03 3.550e-03 
*LOADS
*RC U1353:B 6.461e-05
*RC o_UART_DATA_TX\[42\] 6.461e-05
*END

*R_NET o_UART_DATA_TX\[41\] 7.100e-03
*DRIVER o_UART_DATA_TX_reg_41_:Q
*CELL fd2qd1_hd
*C2_R1_C1 3.550e-03 9.100e-03 3.550e-03 
*LOADS
*RC U1352:B 6.461e-05
*RC o_UART_DATA_TX\[41\] 6.461e-05
*END

*R_NET o_UART_DATA_TX\[40\] 7.100e-03
*DRIVER o_UART_DATA_TX_reg_40_:Q
*CELL fd2qd1_hd
*C2_R1_C1 3.550e-03 9.100e-03 3.550e-03 
*LOADS
*RC U1351:B 6.461e-05
*RC o_UART_DATA_TX\[40\] 6.461e-05
*END

*R_NET o_UART_DATA_TX\[39\] 7.100e-03
*DRIVER o_UART_DATA_TX_reg_39_:Q
*CELL fd2qd1_hd
*C2_R1_C1 3.550e-03 9.100e-03 3.550e-03 
*LOADS
*RC U1350:B 6.461e-05
*RC o_UART_DATA_TX\[39\] 6.461e-05
*END

*R_NET o_UART_DATA_TX\[38\] 7.100e-03
*DRIVER o_UART_DATA_TX_reg_38_:Q
*CELL fd2qd1_hd
*C2_R1_C1 3.550e-03 9.100e-03 3.550e-03 
*LOADS
*RC U1349:B 6.461e-05
*RC o_UART_DATA_TX\[38\] 6.461e-05
*END

*R_NET o_UART_DATA_TX\[37\] 7.100e-03
*DRIVER o_UART_DATA_TX_reg_37_:Q
*CELL fd2qd1_hd
*C2_R1_C1 3.550e-03 9.100e-03 3.550e-03 
*LOADS
*RC U1348:B 6.461e-05
*RC o_UART_DATA_TX\[37\] 6.461e-05
*END

*R_NET o_UART_DATA_TX\[36\] 7.100e-03
*DRIVER o_UART_DATA_TX_reg_36_:Q
*CELL fd2qd1_hd
*C2_R1_C1 3.550e-03 9.100e-03 3.550e-03 
*LOADS
*RC U1347:B 6.461e-05
*RC o_UART_DATA_TX\[36\] 6.461e-05
*END

*R_NET o_UART_DATA_TX\[35\] 7.100e-03
*DRIVER o_UART_DATA_TX_reg_35_:Q
*CELL fd2qd1_hd
*C2_R1_C1 3.550e-03 9.100e-03 3.550e-03 
*LOADS
*RC U1346:B 6.461e-05
*RC o_UART_DATA_TX\[35\] 6.461e-05
*END

*R_NET o_UART_DATA_TX\[34\] 7.100e-03
*DRIVER o_UART_DATA_TX_reg_34_:Q
*CELL fd2qd1_hd
*C2_R1_C1 3.550e-03 9.100e-03 3.550e-03 
*LOADS
*RC U1345:B 6.461e-05
*RC o_UART_DATA_TX\[34\] 6.461e-05
*END

*R_NET o_UART_DATA_TX\[33\] 7.100e-03
*DRIVER o_UART_DATA_TX_reg_33_:Q
*CELL fd2qd1_hd
*C2_R1_C1 3.550e-03 9.100e-03 3.550e-03 
*LOADS
*RC U1344:B 6.461e-05
*RC o_UART_DATA_TX\[33\] 6.461e-05
*END

*R_NET o_UART_DATA_TX\[32\] 7.100e-03
*DRIVER o_UART_DATA_TX_reg_32_:Q
*CELL fd2qd1_hd
*C2_R1_C1 3.550e-03 9.100e-03 3.550e-03 
*LOADS
*RC U1343:B 6.461e-05
*RC o_UART_DATA_TX\[32\] 6.461e-05
*END

*R_NET o_UART_DATA_TX\[31\] 7.050e-03
*DRIVER o_UART_DATA_TX_reg_31_:Q
*CELL fd2qd1_hd
*C2_R1_C1 3.525e-03 9.100e-03 3.525e-03 
*LOADS
*RC U964:C 6.416e-05
*RC o_UART_DATA_TX\[31\] 6.416e-05
*END

*R_NET o_UART_DATA_TX\[30\] 7.050e-03
*DRIVER o_UART_DATA_TX_reg_30_:Q
*CELL fd2qd1_hd
*C2_R1_C1 3.525e-03 9.100e-03 3.525e-03 
*LOADS
*RC U965:C 6.416e-05
*RC o_UART_DATA_TX\[30\] 6.416e-05
*END

*R_NET o_UART_DATA_TX\[29\] 7.050e-03
*DRIVER o_UART_DATA_TX_reg_29_:Q
*CELL fd2qd1_hd
*C2_R1_C1 3.525e-03 9.100e-03 3.525e-03 
*LOADS
*RC U966:C 6.416e-05
*RC o_UART_DATA_TX\[29\] 6.416e-05
*END

*R_NET o_UART_DATA_TX\[28\] 7.050e-03
*DRIVER o_UART_DATA_TX_reg_28_:Q
*CELL fd2qd1_hd
*C2_R1_C1 3.525e-03 9.100e-03 3.525e-03 
*LOADS
*RC U967:C 6.416e-05
*RC o_UART_DATA_TX\[28\] 6.416e-05
*END

*R_NET o_UART_DATA_TX\[27\] 7.050e-03
*DRIVER o_UART_DATA_TX_reg_27_:Q
*CELL fd2qd1_hd
*C2_R1_C1 3.525e-03 9.100e-03 3.525e-03 
*LOADS
*RC U968:C 6.416e-05
*RC o_UART_DATA_TX\[27\] 6.416e-05
*END

*R_NET o_UART_DATA_TX\[26\] 7.050e-03
*DRIVER o_UART_DATA_TX_reg_26_:Q
*CELL fd2qd1_hd
*C2_R1_C1 3.525e-03 9.100e-03 3.525e-03 
*LOADS
*RC U969:C 6.416e-05
*RC o_UART_DATA_TX\[26\] 6.416e-05
*END

*R_NET o_UART_DATA_TX\[25\] 7.050e-03
*DRIVER o_UART_DATA_TX_reg_25_:Q
*CELL fd2qd1_hd
*C2_R1_C1 3.525e-03 9.100e-03 3.525e-03 
*LOADS
*RC U970:C 6.416e-05
*RC o_UART_DATA_TX\[25\] 6.416e-05
*END

*R_NET o_UART_DATA_TX\[24\] 7.050e-03
*DRIVER o_UART_DATA_TX_reg_24_:Q
*CELL fd2qd1_hd
*C2_R1_C1 3.525e-03 9.100e-03 3.525e-03 
*LOADS
*RC U971:C 6.416e-05
*RC o_UART_DATA_TX\[24\] 6.416e-05
*END

*R_NET o_UART_DATA_TX\[19\] 7.050e-03
*DRIVER o_UART_DATA_TX_reg_19_:Q
*CELL fd2qd1_hd
*C2_R1_C1 3.525e-03 9.100e-03 3.525e-03 
*LOADS
*RC U972:C 6.416e-05
*RC o_UART_DATA_TX\[19\] 6.416e-05
*END

*R_NET o_UART_DATA_TX\[18\] 7.050e-03
*DRIVER o_UART_DATA_TX_reg_18_:Q
*CELL fd2qd1_hd
*C2_R1_C1 3.525e-03 9.100e-03 3.525e-03 
*LOADS
*RC U973:C 6.416e-05
*RC o_UART_DATA_TX\[18\] 6.416e-05
*END

*R_NET o_UART_DATA_TX\[17\] 7.050e-03
*DRIVER o_UART_DATA_TX_reg_17_:Q
*CELL fd2qd1_hd
*C2_R1_C1 3.525e-03 9.100e-03 3.525e-03 
*LOADS
*RC U974:C 6.416e-05
*RC o_UART_DATA_TX\[17\] 6.416e-05
*END

*R_NET o_UART_DATA_TX\[16\] 7.050e-03
*DRIVER o_UART_DATA_TX_reg_16_:Q
*CELL fd2qd1_hd
*C2_R1_C1 3.525e-03 9.100e-03 3.525e-03 
*LOADS
*RC U975:C 6.416e-05
*RC o_UART_DATA_TX\[16\] 6.416e-05
*END

*R_NET o_UART_DATA_TX\[15\] 7.050e-03
*DRIVER o_UART_DATA_TX_reg_15_:Q
*CELL fd2qd1_hd
*C2_R1_C1 3.525e-03 9.100e-03 3.525e-03 
*LOADS
*RC U976:C 6.416e-05
*RC o_UART_DATA_TX\[15\] 6.416e-05
*END

*R_NET o_UART_DATA_TX\[14\] 7.050e-03
*DRIVER o_UART_DATA_TX_reg_14_:Q
*CELL fd2qd1_hd
*C2_R1_C1 3.525e-03 9.100e-03 3.525e-03 
*LOADS
*RC U977:C 6.416e-05
*RC o_UART_DATA_TX\[14\] 6.416e-05
*END

*R_NET o_UART_DATA_TX\[13\] 7.050e-03
*DRIVER o_UART_DATA_TX_reg_13_:Q
*CELL fd2qd1_hd
*C2_R1_C1 3.525e-03 9.100e-03 3.525e-03 
*LOADS
*RC U978:C 6.416e-05
*RC o_UART_DATA_TX\[13\] 6.416e-05
*END

*R_NET o_UART_DATA_TX\[12\] 7.050e-03
*DRIVER o_UART_DATA_TX_reg_12_:Q
*CELL fd2qd1_hd
*C2_R1_C1 3.525e-03 9.100e-03 3.525e-03 
*LOADS
*RC U979:C 6.416e-05
*RC o_UART_DATA_TX\[12\] 6.416e-05
*END

*R_NET o_UART_DATA_TX\[11\] 7.050e-03
*DRIVER o_UART_DATA_TX_reg_11_:Q
*CELL fd2qd1_hd
*C2_R1_C1 3.525e-03 9.100e-03 3.525e-03 
*LOADS
*RC U980:C 6.416e-05
*RC o_UART_DATA_TX\[11\] 6.416e-05
*END

*R_NET o_UART_DATA_TX\[10\] 7.050e-03
*DRIVER o_UART_DATA_TX_reg_10_:Q
*CELL fd2qd1_hd
*C2_R1_C1 3.525e-03 9.100e-03 3.525e-03 
*LOADS
*RC U981:C 6.416e-05
*RC o_UART_DATA_TX\[10\] 6.416e-05
*END

*R_NET o_UART_DATA_TX\[9\] 7.050e-03
*DRIVER o_UART_DATA_TX_reg_9_:Q
*CELL fd2qd1_hd
*C2_R1_C1 3.525e-03 9.100e-03 3.525e-03 
*LOADS
*RC U982:C 6.416e-05
*RC o_UART_DATA_TX\[9\] 6.416e-05
*END

*R_NET o_UART_DATA_TX\[8\] 7.050e-03
*DRIVER o_UART_DATA_TX_reg_8_:Q
*CELL fd2qd1_hd
*C2_R1_C1 3.525e-03 9.100e-03 3.525e-03 
*LOADS
*RC U983:C 6.416e-05
*RC o_UART_DATA_TX\[8\] 6.416e-05
*END

*R_NET o_UART_DATA_TX\[7\] 7.140e-03
*DRIVER o_UART_DATA_TX_reg_7_:Q
*CELL fd2qd1_hd
*C2_R1_C1 3.570e-03 9.100e-03 3.570e-03 
*LOADS
*RC U1111:A 6.497e-05
*RC o_UART_DATA_TX\[7\] 6.497e-05
*END

*R_NET o_UART_DATA_TX\[5\] 7.140e-03
*DRIVER o_UART_DATA_TX_reg_5_:Q
*CELL fd2qd1_hd
*C2_R1_C1 3.570e-03 9.100e-03 3.570e-03 
*LOADS
*RC U1113:A 6.497e-05
*RC o_UART_DATA_TX\[5\] 6.497e-05
*END

*R_NET o_UART_DATA_TX\[4\] 7.140e-03
*DRIVER o_UART_DATA_TX_reg_4_:Q
*CELL fd2qd1_hd
*C2_R1_C1 3.570e-03 9.100e-03 3.570e-03 
*LOADS
*RC U1108:A 6.497e-05
*RC o_UART_DATA_TX\[4\] 6.497e-05
*END

*R_NET o_UART_DATA_TX\[3\] 7.140e-03
*DRIVER o_UART_DATA_TX_reg_3_:Q
*CELL fd2qd1_hd
*C2_R1_C1 3.570e-03 9.100e-03 3.570e-03 
*LOADS
*RC U1112:A 6.497e-05
*RC o_UART_DATA_TX\[3\] 6.497e-05
*END

*R_NET o_UART_DATA_TX\[1\] 7.140e-03
*DRIVER o_UART_DATA_TX_reg_1_:Q
*CELL fd2qd1_hd
*C2_R1_C1 3.570e-03 9.100e-03 3.570e-03 
*LOADS
*RC U1115:A 6.497e-05
*RC o_UART_DATA_TX\[1\] 6.497e-05
*END

*R_NET o_UART_DATA_TX\[0\] 7.140e-03
*DRIVER o_UART_DATA_TX_reg_0_:Q
*CELL fd2qd1_hd
*C2_R1_C1 3.570e-03 9.100e-03 3.570e-03 
*LOADS
*RC U1110:A 6.497e-05
*RC o_UART_DATA_TX\[0\] 6.497e-05
*END

*R_NET o_UART_DATA_TX_VALID 7.210e-03
*DRIVER o_UART_DATA_TX_VALID_reg:Q
*CELL fd2qd1_hd
*C2_R1_C1 3.605e-03 9.100e-03 3.605e-03 
*LOADS
*RC U1255:A 6.561e-05
*RC o_UART_DATA_TX_VALID 6.561e-05
*END

*R_NET i_UART_DATA_TX_READY 5.190e-03
*DRIVER i_UART_DATA_TX_READY
*CELL NULL
*C2_R1_C1 2.595e-03 7.370e-03 2.595e-03 
*LOADS
*RC U803:B 3.825e-05
*END

*R_NET i_UART_DATA_RX\[15\] 5.750e-03
*DRIVER i_UART_DATA_RX\[15\]
*CELL NULL
*C2_R1_C1 2.875e-03 7.370e-03 2.875e-03 
*LOADS
*RC U1360:A 4.238e-05
*END

*R_NET i_UART_DATA_RX\[14\] 4.670e-03
*DRIVER i_UART_DATA_RX\[14\]
*CELL NULL
*C2_R1_C1 2.335e-03 7.370e-03 2.335e-03 
*LOADS
*RC U1022:D 3.442e-05
*END

*R_NET i_UART_DATA_RX\[13\] 4.670e-03
*DRIVER i_UART_DATA_RX\[13\]
*CELL NULL
*C2_R1_C1 2.335e-03 7.370e-03 2.335e-03 
*LOADS
*RC U1018:D 3.442e-05
*END

*R_NET i_UART_DATA_RX\[12\] 4.670e-03
*DRIVER i_UART_DATA_RX\[12\]
*CELL NULL
*C2_R1_C1 2.335e-03 7.370e-03 2.335e-03 
*LOADS
*RC U1020:D 3.442e-05
*END

*R_NET i_UART_DATA_RX\[11\] 4.670e-03
*DRIVER i_UART_DATA_RX\[11\]
*CELL NULL
*C2_R1_C1 2.335e-03 7.370e-03 2.335e-03 
*LOADS
*RC U1021:D 3.442e-05
*END

*R_NET i_UART_DATA_RX\[10\] 4.670e-03
*DRIVER i_UART_DATA_RX\[10\]
*CELL NULL
*C2_R1_C1 2.335e-03 7.370e-03 2.335e-03 
*LOADS
*RC U1015:D 3.442e-05
*END

*R_NET i_UART_DATA_RX\[9\] 4.670e-03
*DRIVER i_UART_DATA_RX\[9\]
*CELL NULL
*C2_R1_C1 2.335e-03 7.370e-03 2.335e-03 
*LOADS
*RC U1016:D 3.442e-05
*END

*R_NET i_UART_DATA_RX\[8\] 4.670e-03
*DRIVER i_UART_DATA_RX\[8\]
*CELL NULL
*C2_R1_C1 2.335e-03 7.370e-03 2.335e-03 
*LOADS
*RC U1012:D 3.442e-05
*END

*R_NET i_UART_DATA_RX\[7\] 5.750e-03
*DRIVER i_UART_DATA_RX\[7\]
*CELL NULL
*C2_R1_C1 2.875e-03 7.370e-03 2.875e-03 
*LOADS
*RC U1361:A 4.238e-05
*END

*R_NET i_UART_DATA_RX\[6\] 5.750e-03
*DRIVER i_UART_DATA_RX\[6\]
*CELL NULL
*C2_R1_C1 2.875e-03 7.370e-03 2.875e-03 
*LOADS
*RC U1362:A 4.238e-05
*END

*R_NET i_UART_DATA_RX\[5\] 5.750e-03
*DRIVER i_UART_DATA_RX\[5\]
*CELL NULL
*C2_R1_C1 2.875e-03 7.370e-03 2.875e-03 
*LOADS
*RC U1363:A 4.238e-05
*END

*R_NET i_UART_DATA_RX\[4\] 5.750e-03
*DRIVER i_UART_DATA_RX\[4\]
*CELL NULL
*C2_R1_C1 2.875e-03 7.370e-03 2.875e-03 
*LOADS
*RC U1364:A 4.238e-05
*END

*R_NET i_UART_DATA_RX\[3\] 5.750e-03
*DRIVER i_UART_DATA_RX\[3\]
*CELL NULL
*C2_R1_C1 2.875e-03 7.370e-03 2.875e-03 
*LOADS
*RC U1365:A 4.238e-05
*END

*R_NET i_UART_DATA_RX\[2\] 5.750e-03
*DRIVER i_UART_DATA_RX\[2\]
*CELL NULL
*C2_R1_C1 2.875e-03 7.370e-03 2.875e-03 
*LOADS
*RC U1366:A 4.238e-05
*END

*R_NET i_UART_DATA_RX\[1\] 5.750e-03
*DRIVER i_UART_DATA_RX\[1\]
*CELL NULL
*C2_R1_C1 2.875e-03 7.370e-03 2.875e-03 
*LOADS
*RC U1367:A 4.238e-05
*END

*R_NET i_UART_DATA_RX\[0\] 5.750e-03
*DRIVER i_UART_DATA_RX\[0\]
*CELL NULL
*C2_R1_C1 2.875e-03 7.370e-03 2.875e-03 
*LOADS
*RC U1368:A 4.238e-05
*END

*R_NET i_UART_DATA_RX_VALID 1.016e-02
*DRIVER i_UART_DATA_RX_VALID
*CELL NULL
*C2_R1_C1 5.080e-03 9.100e-03 5.080e-03 
*LOADS
*RC U1054:A 9.246e-05
*RC U1065:B 9.246e-05
*END

*R_NET i_MPR121_DATA_OUT\[7\] 1.373e-02
*DRIVER i_MPR121_DATA_OUT\[7\]
*CELL NULL
*C2_R1_C1 6.865e-03 9.460e-03 6.865e-03 
*LOADS
*RC U912:D 1.299e-04
*RC U916:D 1.299e-04
*RC U941:A 1.299e-04
*END

*R_NET i_MPR121_DATA_OUT\[6\] 1.373e-02
*DRIVER i_MPR121_DATA_OUT\[6\]
*CELL NULL
*C2_R1_C1 6.865e-03 9.460e-03 6.865e-03 
*LOADS
*RC U910:D 1.299e-04
*RC U911:D 1.299e-04
*RC U949:A 1.299e-04
*END

*R_NET i_MPR121_DATA_OUT\[5\] 1.373e-02
*DRIVER i_MPR121_DATA_OUT\[5\]
*CELL NULL
*C2_R1_C1 6.865e-03 9.460e-03 6.865e-03 
*LOADS
*RC U920:D 1.299e-04
*RC U937:D 1.299e-04
*RC U942:A 1.299e-04
*END

*R_NET i_MPR121_DATA_OUT\[4\] 1.373e-02
*DRIVER i_MPR121_DATA_OUT\[4\]
*CELL NULL
*C2_R1_C1 6.865e-03 9.460e-03 6.865e-03 
*LOADS
*RC U908:D 1.299e-04
*RC U932:D 1.299e-04
*RC U943:A 1.299e-04
*END

*R_NET i_MPR121_DATA_OUT\[3\] 2.300e-02
*DRIVER i_MPR121_DATA_OUT\[3\]
*CELL NULL
*C2_R1_C1 1.150e-02 1.549e-02 1.150e-02 
*LOADS
*RC U899:D 3.563e-04
*RC U906:A 3.563e-04
*RC U918:A 3.563e-04
*RC U944:A 3.563e-04
*RC U1052:D 3.563e-04
*END

*R_NET i_MPR121_DATA_OUT\[2\] 2.300e-02
*DRIVER i_MPR121_DATA_OUT\[2\]
*CELL NULL
*C2_R1_C1 1.150e-02 1.549e-02 1.150e-02 
*LOADS
*RC U897:D 3.563e-04
*RC U904:A 3.563e-04
*RC U913:A 3.563e-04
*RC U945:A 3.563e-04
*RC U1051:D 3.563e-04
*END

*R_NET i_MPR121_DATA_OUT\[1\] 2.300e-02
*DRIVER i_MPR121_DATA_OUT\[1\]
*CELL NULL
*C2_R1_C1 1.150e-02 1.549e-02 1.150e-02 
*LOADS
*RC U895:D 3.563e-04
*RC U896:A 3.563e-04
*RC U921:A 3.563e-04
*RC U947:A 3.563e-04
*RC U1050:D 3.563e-04
*END

*R_NET i_MPR121_DATA_OUT\[0\] 2.312e-02
*DRIVER i_MPR121_DATA_OUT\[0\]
*CELL NULL
*C2_R1_C1 1.156e-02 1.549e-02 1.156e-02 
*LOADS
*RC U900:A 3.581e-04
*RC U926:A 3.581e-04
*RC U948:A 3.581e-04
*RC U1049:A 3.581e-04
*RC U1048:A 3.581e-04
*END

*R_NET o_MPR121_REG_ADDR\[7\] 7.130e-03
*DRIVER o_MPR121_REG_ADDR_reg_7_:Q
*CELL fd2qd1_hd
*C2_R1_C1 3.565e-03 9.100e-03 3.565e-03 
*LOADS
*RC U992:B 6.488e-05
*RC o_MPR121_REG_ADDR\[7\] 6.488e-05
*END

*R_NET o_MPR121_REG_ADDR\[6\] 7.150e-03
*DRIVER o_MPR121_REG_ADDR_reg_6_:Q
*CELL fd2qd1_hd
*C2_R1_C1 3.575e-03 9.100e-03 3.575e-03 
*LOADS
*RC U987:B 6.507e-05
*RC o_MPR121_REG_ADDR\[6\] 6.507e-05
*END

*R_NET o_MPR121_REG_ADDR\[5\] 7.150e-03
*DRIVER o_MPR121_REG_ADDR_reg_5_:Q
*CELL fd2qd1_hd
*C2_R1_C1 3.575e-03 9.100e-03 3.575e-03 
*LOADS
*RC U988:B 6.507e-05
*RC o_MPR121_REG_ADDR\[5\] 6.507e-05
*END

*R_NET o_MPR121_REG_ADDR\[4\] 7.150e-03
*DRIVER o_MPR121_REG_ADDR_reg_4_:Q
*CELL fd2qd1_hd
*C2_R1_C1 3.575e-03 9.100e-03 3.575e-03 
*LOADS
*RC U989:B 6.507e-05
*RC o_MPR121_REG_ADDR\[4\] 6.507e-05
*END

*R_NET o_MPR121_REG_ADDR\[3\] 7.590e-03
*DRIVER o_MPR121_REG_ADDR_reg_3_:Q
*CELL fd2qd1_hd
*C2_R1_C1 3.795e-03 9.100e-03 3.795e-03 
*LOADS
*RC U1295:A 6.907e-05
*RC o_MPR121_REG_ADDR\[3\] 6.907e-05
*END

*R_NET o_MPR121_REG_ADDR\[2\] 7.150e-03
*DRIVER o_MPR121_REG_ADDR_reg_2_:Q
*CELL fd2qd1_hd
*C2_R1_C1 3.575e-03 9.100e-03 3.575e-03 
*LOADS
*RC U990:B 6.507e-05
*RC o_MPR121_REG_ADDR\[2\] 6.507e-05
*END

*R_NET o_MPR121_REG_ADDR\[1\] 7.590e-03
*DRIVER o_MPR121_REG_ADDR_reg_1_:Q
*CELL fd2qd1_hd
*C2_R1_C1 3.795e-03 9.100e-03 3.795e-03 
*LOADS
*RC U1281:A 6.907e-05
*RC o_MPR121_REG_ADDR\[1\] 6.907e-05
*END

*R_NET o_MPR121_REG_ADDR\[0\] 7.590e-03
*DRIVER o_MPR121_REG_ADDR_reg_0_:Q
*CELL fd2qd1_hd
*C2_R1_C1 3.795e-03 9.100e-03 3.795e-03 
*LOADS
*RC U1279:A 6.907e-05
*RC o_MPR121_REG_ADDR\[0\] 6.907e-05
*END

*R_NET o_MPR121_DATA_IN\[7\] 7.050e-03
*DRIVER o_MPR121_DATA_IN_reg_7_:Q
*CELL fd2qd1_hd
*C2_R1_C1 3.525e-03 9.100e-03 3.525e-03 
*LOADS
*RC U1004:C 6.416e-05
*RC o_MPR121_DATA_IN\[7\] 6.416e-05
*END

*R_NET o_MPR121_DATA_IN\[6\] 7.050e-03
*DRIVER o_MPR121_DATA_IN_reg_6_:Q
*CELL fd2qd1_hd
*C2_R1_C1 3.525e-03 9.100e-03 3.525e-03 
*LOADS
*RC U1001:C 6.416e-05
*RC o_MPR121_DATA_IN\[6\] 6.416e-05
*END

*R_NET o_MPR121_DATA_IN\[4\] 7.050e-03
*DRIVER o_MPR121_DATA_IN_reg_4_:Q
*CELL fd2qd1_hd
*C2_R1_C1 3.525e-03 9.100e-03 3.525e-03 
*LOADS
*RC U999:C 6.416e-05
*RC o_MPR121_DATA_IN\[4\] 6.416e-05
*END

*R_NET o_MPR121_DATA_IN\[3\] 7.050e-03
*DRIVER o_MPR121_DATA_IN_reg_3_:Q
*CELL fd2qd1_hd
*C2_R1_C1 3.525e-03 9.100e-03 3.525e-03 
*LOADS
*RC U1002:C 6.416e-05
*RC o_MPR121_DATA_IN\[3\] 6.416e-05
*END

*R_NET o_MPR121_DATA_IN\[2\] 7.050e-03
*DRIVER o_MPR121_DATA_IN_reg_2_:Q
*CELL fd2qd1_hd
*C2_R1_C1 3.525e-03 9.100e-03 3.525e-03 
*LOADS
*RC U1000:C 6.416e-05
*RC o_MPR121_DATA_IN\[2\] 6.416e-05
*END

*R_NET o_MPR121_DATA_IN\[1\] 7.050e-03
*DRIVER o_MPR121_DATA_IN_reg_1_:Q
*CELL fd2qd1_hd
*C2_R1_C1 3.525e-03 9.100e-03 3.525e-03 
*LOADS
*RC U1003:C 6.416e-05
*RC o_MPR121_DATA_IN\[1\] 6.416e-05
*END

*R_NET o_MPR121_DATA_IN\[0\] 7.050e-03
*DRIVER o_MPR121_DATA_IN_reg_0_:Q
*CELL fd2qd1_hd
*C2_R1_C1 3.525e-03 9.100e-03 3.525e-03 
*LOADS
*RC U998:C 6.416e-05
*RC o_MPR121_DATA_IN\[0\] 6.416e-05
*END

*R_NET o_MPR121_WRITE_ENABLE 6.880e-03
*DRIVER o_MPR121_WRITE_ENABLE_reg:Q
*CELL fd2qd1_hd
*C2_R1_C1 3.440e-03 9.100e-03 3.440e-03 
*LOADS
*RC U1099:B 6.261e-05
*RC o_MPR121_WRITE_ENABLE 6.261e-05
*END

*R_NET o_MPR121_READ_ENABLE 7.100e-03
*DRIVER o_MPR121_READ_ENABLE_reg:Q
*CELL fd2qd1_hd
*C2_R1_C1 3.550e-03 9.100e-03 3.550e-03 
*LOADS
*RC U1101:B 6.461e-05
*RC o_MPR121_READ_ENABLE 6.461e-05
*END

*R_NET i_MPR121_INIT_SET 5.630e-03
*DRIVER i_MPR121_INIT_SET
*CELL NULL
*C2_R1_C1 2.815e-03 7.370e-03 2.815e-03 
*LOADS
*RC U1180:B 4.149e-05
*END

*R_NET i_MPR121_BUSY 1.008e-02
*DRIVER i_MPR121_BUSY
*CELL NULL
*C2_R1_C1 5.040e-03 9.100e-03 5.040e-03 
*LOADS
*RC U1121:A 9.173e-05
*RC U1140:B 9.173e-05
*END

*R_NET i_MPR121_FAIL 9.930e-03
*DRIVER i_MPR121_FAIL
*CELL NULL
*C2_R1_C1 4.965e-03 9.100e-03 4.965e-03 
*LOADS
*RC U825:B 9.036e-05
*RC U1140:A 9.036e-05
*END

*R_NET o_MPR121_TOUCH_STATUS\[11\] 7.040e-03
*DRIVER o_MPR121_TOUCH_STATUS_reg_11_:Q
*CELL fd2qd1_hd
*C2_R1_C1 3.520e-03 9.100e-03 3.520e-03 
*LOADS
*RC U906:D 6.406e-05
*RC o_MPR121_TOUCH_STATUS\[11\] 6.406e-05
*END

*R_NET o_MPR121_TOUCH_STATUS\[10\] 7.040e-03
*DRIVER o_MPR121_TOUCH_STATUS_reg_10_:Q
*CELL fd2qd1_hd
*C2_R1_C1 3.520e-03 9.100e-03 3.520e-03 
*LOADS