*SPEF "IEEE 1481-1999"
*DESIGN "ads1292_filter"
*DATE "Mon May  4 15:25:37 2020"
*VENDOR "SYNOPSYS INC"
*PROGRAM "Synopsys Design Compiler cmos"
*VERSION "F-2011.09-SP5-3"
*DESIGN_FLOW "SYNTHESIS"
*DIVIDER /
*DELIMITER :
*BUS_DELIMITER []
*T_UNIT 1.0 NS
*C_UNIT 1.0 PF
*R_UNIT 1.0 KOHM
*L_UNIT 1.0 HENRY

*PORTS

i_ADS1292_DATA_OUT\[71\] I *L 0.000e+00 *S 0.000e+00 0.000e+00 
i_ADS1292_DATA_OUT\[70\] I *L 0.000e+00 *S 0.000e+00 0.000e+00 
i_ADS1292_DATA_OUT\[69\] I *L 0.000e+00 *S 0.000e+00 0.000e+00 
i_ADS1292_DATA_OUT\[68\] I *L 0.000e+00 *S 0.000e+00 0.000e+00 
i_ADS1292_DATA_OUT\[67\] I *L 0.000e+00 *S 0.000e+00 0.000e+00 
i_ADS1292_DATA_OUT\[66\] I *L 0.000e+00 *S 0.000e+00 0.000e+00 
i_ADS1292_DATA_OUT\[65\] I *L 0.000e+00 *S 0.000e+00 0.000e+00 
i_ADS1292_DATA_OUT\[64\] I *L 0.000e+00 *S 0.000e+00 0.000e+00 
i_ADS1292_DATA_OUT\[63\] I *L 0.000e+00 *S 0.000e+00 0.000e+00 
i_ADS1292_DATA_OUT\[62\] I *L 0.000e+00 *S 0.000e+00 0.000e+00 
i_ADS1292_DATA_OUT\[61\] I *L 0.000e+00 *S 0.000e+00 0.000e+00 
i_ADS1292_DATA_OUT\[60\] I *L 0.000e+00 *S 0.000e+00 0.000e+00 
i_ADS1292_DATA_OUT\[59\] I *L 0.000e+00 *S 0.000e+00 0.000e+00 
i_ADS1292_DATA_OUT\[58\] I *L 0.000e+00 *S 0.000e+00 0.000e+00 
i_ADS1292_DATA_OUT\[57\] I *L 0.000e+00 *S 0.000e+00 0.000e+00 
i_ADS1292_DATA_OUT\[56\] I *L 0.000e+00 *S 0.000e+00 0.000e+00 
i_ADS1292_DATA_OUT\[55\] I *L 0.000e+00 *S 0.000e+00 0.000e+00 
i_ADS1292_DATA_OUT\[54\] I *L 0.000e+00 *S 0.000e+00 0.000e+00 
i_ADS1292_DATA_OUT\[53\] I *L 0.000e+00 *S 0.000e+00 0.000e+00 
i_ADS1292_DATA_OUT\[52\] I *L 0.000e+00 *S 0.000e+00 0.000e+00 
i_ADS1292_DATA_OUT\[51\] I *L 0.000e+00 *S 0.000e+00 0.000e+00 
i_ADS1292_DATA_OUT\[50\] I *L 0.000e+00 *S 0.000e+00 0.000e+00 
i_ADS1292_DATA_OUT\[49\] I *L 0.000e+00 *S 0.000e+00 0.000e+00 
i_ADS1292_DATA_OUT\[48\] I *L 0.000e+00 *S 0.000e+00 0.000e+00 
i_ADS1292_DATA_OUT\[47\] I *L 0.000e+00 *S 0.000e+00 0.000e+00 
i_ADS1292_DATA_OUT\[46\] I *L 0.000e+00 *S 0.000e+00 0.000e+00 
i_ADS1292_DATA_OUT\[45\] I *L 0.000e+00 *S 0.000e+00 0.000e+00 
i_ADS1292_DATA_OUT\[44\] I *L 0.000e+00 *S 0.000e+00 0.000e+00 
i_ADS1292_DATA_OUT\[43\] I *L 0.000e+00 *S 0.000e+00 0.000e+00 
i_ADS1292_DATA_OUT\[42\] I *L 0.000e+00 *S 0.000e+00 0.000e+00 
i_ADS1292_DATA_OUT\[41\] I *L 0.000e+00 *S 0.000e+00 0.000e+00 
i_ADS1292_DATA_OUT\[40\] I *L 0.000e+00 *S 0.000e+00 0.000e+00 
i_ADS1292_DATA_OUT\[39\] I *L 0.000e+00 *S 0.000e+00 0.000e+00 
i_ADS1292_DATA_OUT\[38\] I *L 0.000e+00 *S 0.000e+00 0.000e+00 
i_ADS1292_DATA_OUT\[37\] I *L 0.000e+00 *S 0.000e+00 0.000e+00 
i_ADS1292_DATA_OUT\[36\] I *L 0.000e+00 *S 0.000e+00 0.000e+00 
i_ADS1292_DATA_OUT\[35\] I *L 0.000e+00 *S 0.000e+00 0.000e+00 
i_ADS1292_DATA_OUT\[34\] I *L 0.000e+00 *S 0.000e+00 0.000e+00 
i_ADS1292_DATA_OUT\[33\] I *L 0.000e+00 *S 0.000e+00 0.000e+00 
i_ADS1292_DATA_OUT\[32\] I *L 0.000e+00 *S 0.000e+00 0.000e+00 
i_ADS1292_DATA_OUT\[31\] I *L 0.000e+00 *S 0.000e+00 0.000e+00 
i_ADS1292_DATA_OUT\[30\] I *L 0.000e+00 *S 0.000e+00 0.000e+00 
i_ADS1292_DATA_OUT\[29\] I *L 0.000e+00 *S 0.000e+00 0.000e+00 
i_ADS1292_DATA_OUT\[28\] I *L 0.000e+00 *S 0.000e+00 0.000e+00 
i_ADS1292_DATA_OUT\[27\] I *L 0.000e+00 *S 0.000e+00 0.000e+00 
i_ADS1292_DATA_OUT\[26\] I *L 0.000e+00 *S 0.000e+00 0.000e+00 
i_ADS1292_DATA_OUT\[25\] I *L 0.000e+00 *S 0.000e+00 0.000e+00 
i_ADS1292_DATA_OUT\[24\] I *L 0.000e+00 *S 0.000e+00 0.000e+00 
i_ADS1292_DATA_OUT\[23\] I *L 0.000e+00 *S 0.000e+00 0.000e+00 
i_ADS1292_DATA_OUT\[22\] I *L 0.000e+00 *S 0.000e+00 0.000e+00 
i_ADS1292_DATA_OUT\[21\] I *L 0.000e+00 *S 0.000e+00 0.000e+00 
i_ADS1292_DATA_OUT\[20\] I *L 0.000e+00 *S 0.000e+00 0.000e+00 
i_ADS1292_DATA_OUT\[19\] I *L 0.000e+00 *S 0.000e+00 0.000e+00 
i_ADS1292_DATA_OUT\[18\] I *L 0.000e+00 *S 0.000e+00 0.000e+00 
i_ADS1292_DATA_OUT\[17\] I *L 0.000e+00 *S 0.000e+00 0.000e+00 
i_ADS1292_DATA_OUT\[16\] I *L 0.000e+00 *S 0.000e+00 0.000e+00 
i_ADS1292_DATA_OUT\[15\] I *L 0.000e+00 *S 0.000e+00 0.000e+00 
i_ADS1292_DATA_OUT\[14\] I *L 0.000e+00 *S 0.000e+00 0.000e+00 
i_ADS1292_DATA_OUT\[13\] I *L 0.000e+00 *S 0.000e+00 0.000e+00 
i_ADS1292_DATA_OUT\[12\] I *L 0.000e+00 *S 0.000e+00 0.000e+00 
i_ADS1292_DATA_OUT\[11\] I *L 0.000e+00 *S 0.000e+00 0.000e+00 
i_ADS1292_DATA_OUT\[10\] I *L 0.000e+00 *S 0.000e+00 0.000e+00 
i_ADS1292_DATA_OUT\[9\] I *L 0.000e+00 *S 0.000e+00 0.000e+00 
i_ADS1292_DATA_OUT\[8\] I *L 0.000e+00 *S 0.000e+00 0.000e+00 
i_ADS1292_DATA_OUT\[7\] I *L 0.000e+00 *S 0.000e+00 0.000e+00 
i_ADS1292_DATA_OUT\[6\] I *L 0.000e+00 *S 0.000e+00 0.000e+00 
i_ADS1292_DATA_OUT\[5\] I *L 0.000e+00 *S 0.000e+00 0.000e+00 
i_ADS1292_DATA_OUT\[4\] I *L 0.000e+00 *S 0.000e+00 0.000e+00 
i_ADS1292_DATA_OUT\[3\] I *L 0.000e+00 *S 0.000e+00 0.000e+00 
i_ADS1292_DATA_OUT\[2\] I *L 0.000e+00 *S 0.000e+00 0.000e+00 
i_ADS1292_DATA_OUT\[1\] I *L 0.000e+00 *S 0.000e+00 0.000e+00 
i_ADS1292_DATA_OUT\[0\] I *L 0.000e+00 *S 0.000e+00 0.000e+00 
i_ADS1292_DATA_VALID I *L 0.000e+00 *S 0.000e+00 0.000e+00 
o_ADS1292_FILTERED_DATA\[23\] O *L 0.000e+00 *S 1.082e-01 1.471e-01 
o_ADS1292_FILTERED_DATA\[22\] O *L 0.000e+00 *S 1.082e-01 1.471e-01 
o_ADS1292_FILTERED_DATA\[21\] O *L 0.000e+00 *S 1.082e-01 1.471e-01 
o_ADS1292_FILTERED_DATA\[20\] O *L 0.000e+00 *S 1.082e-01 1.471e-01 
o_ADS1292_FILTERED_DATA\[19\] O *L 0.000e+00 *S 1.082e-01 1.471e-01 
o_ADS1292_FILTERED_DATA\[18\] O *L 0.000e+00 *S 1.082e-01 1.471e-01 
o_ADS1292_FILTERED_DATA\[17\] O *L 0.000e+00 *S 1.082e-01 1.471e-01 
o_ADS1292_FILTERED_DATA\[16\] O *L 0.000e+00 *S 1.082e-01 1.471e-01 
o_ADS1292_FILTERED_DATA\[15\] O *L 0.000e+00 *S 1.082e-01 1.471e-01 
o_ADS1292_FILTERED_DATA\[14\] O *L 0.000e+00 *S 1.082e-01 1.471e-01 
o_ADS1292_FILTERED_DATA\[13\] O *L 0.000e+00 *S 1.082e-01 1.471e-01 
o_ADS1292_FILTERED_DATA\[12\] O *L 0.000e+00 *S 1.082e-01 1.471e-01 
o_ADS1292_FILTERED_DATA\[11\] O *L 0.000e+00 *S 1.082e-01 1.471e-01 
o_ADS1292_FILTERED_DATA\[10\] O *L 0.000e+00 *S 1.082e-01 1.471e-01 
o_ADS1292_FILTERED_DATA\[9\] O *L 0.000e+00 *S 1.082e-01 1.471e-01 
o_ADS1292_FILTERED_DATA\[8\] O *L 0.000e+00 *S 1.082e-01 1.471e-01 
o_ADS1292_FILTERED_DATA\[7\] O *L 0.000e+00 *S 1.082e-01 1.471e-01 
o_ADS1292_FILTERED_DATA\[6\] O *L 0.000e+00 *S 1.082e-01 1.471e-01 
o_ADS1292_FILTERED_DATA\[5\] O *L 0.000e+00 *S 1.082e-01 1.471e-01 
o_ADS1292_FILTERED_DATA\[4\] O *L 0.000e+00 *S 1.082e-01 1.471e-01 
o_ADS1292_FILTERED_DATA\[3\] O *L 0.000e+00 *S 1.082e-01 1.471e-01 
o_ADS1292_FILTERED_DATA\[2\] O *L 0.000e+00 *S 1.082e-01 1.471e-01 
o_ADS1292_FILTERED_DATA\[1\] O *L 0.000e+00 *S 1.082e-01 1.471e-01 
o_ADS1292_FILTERED_DATA\[0\] O *L 0.000e+00 *S 1.082e-01 1.471e-01 
o_ADS1292_FILTERED_DATA_VALID O *L 0.000e+00 *S 2.670e-01 2.913e-01 
i_ADS1292_FILTERED_DATA_ACK I *L 0.000e+00 *S 0.000e+00 0.000e+00 
i_CLK I *L 0.000e+00 *S 0.000e+00 0.000e+00 
i_RSTN I *L 0.000e+00 *S 0.000e+00 0.000e+00 

*R_NET i_ADS1292_DATA_OUT\[23\] 5.290e-03
*DRIVER i_ADS1292_DATA_OUT\[23\]
*CELL NULL
*C2_R1_C1 2.645e-03 7.940e-03 2.645e-03 
*LOADS
*RC U479:B 4.200e-05
*END

*R_NET i_ADS1292_DATA_OUT\[22\] 5.290e-03
*DRIVER i_ADS1292_DATA_OUT\[22\]
*CELL NULL
*C2_R1_C1 2.645e-03 7.940e-03 2.645e-03 
*LOADS
*RC U480:B 4.200e-05
*END

*R_NET i_ADS1292_DATA_OUT\[21\] 5.290e-03
*DRIVER i_ADS1292_DATA_OUT\[21\]
*CELL NULL
*C2_R1_C1 2.645e-03 7.940e-03 2.645e-03 
*LOADS
*RC U481:B 4.200e-05
*END

*R_NET i_ADS1292_DATA_OUT\[20\] 5.290e-03
*DRIVER i_ADS1292_DATA_OUT\[20\]
*CELL NULL
*C2_R1_C1 2.645e-03 7.940e-03 2.645e-03 
*LOADS
*RC U482:B 4.200e-05
*END

*R_NET i_ADS1292_DATA_OUT\[19\] 5.290e-03
*DRIVER i_ADS1292_DATA_OUT\[19\]
*CELL NULL
*C2_R1_C1 2.645e-03 7.940e-03 2.645e-03 
*LOADS
*RC U483:B 4.200e-05
*END

*R_NET i_ADS1292_DATA_OUT\[18\] 5.290e-03
*DRIVER i_ADS1292_DATA_OUT\[18\]
*CELL NULL
*C2_R1_C1 2.645e-03 7.940e-03 2.645e-03 
*LOADS
*RC U484:B 4.200e-05
*END

*R_NET i_ADS1292_DATA_OUT\[17\] 5.290e-03
*DRIVER i_ADS1292_DATA_OUT\[17\]
*CELL NULL
*C2_R1_C1 2.645e-03 7.940e-03 2.645e-03 
*LOADS
*RC U485:B 4.200e-05
*END

*R_NET i_ADS1292_DATA_OUT\[16\] 5.290e-03
*DRIVER i_ADS1292_DATA_OUT\[16\]
*CELL NULL
*C2_R1_C1 2.645e-03 7.940e-03 2.645e-03 
*LOADS
*RC U486:B 4.200e-05
*END

*R_NET i_ADS1292_DATA_OUT\[15\] 5.290e-03
*DRIVER i_ADS1292_DATA_OUT\[15\]
*CELL NULL
*C2_R1_C1 2.645e-03 7.940e-03 2.645e-03 
*LOADS
*RC U487:B 4.200e-05
*END

*R_NET i_ADS1292_DATA_OUT\[14\] 5.290e-03
*DRIVER i_ADS1292_DATA_OUT\[14\]
*CELL NULL
*C2_R1_C1 2.645e-03 7.940e-03 2.645e-03 
*LOADS
*RC U488:B 4.200e-05
*END

*R_NET i_ADS1292_DATA_OUT\[13\] 5.290e-03
*DRIVER i_ADS1292_DATA_OUT\[13\]
*CELL NULL
*C2_R1_C1 2.645e-03 7.940e-03 2.645e-03 
*LOADS
*RC U478:B 4.200e-05
*END

*R_NET i_ADS1292_DATA_OUT\[12\] 5.290e-03
*DRIVER i_ADS1292_DATA_OUT\[12\]
*CELL NULL
*C2_R1_C1 2.645e-03 7.940e-03 2.645e-03 
*LOADS
*RC U473:B 4.200e-05
*END

*R_NET i_ADS1292_DATA_OUT\[11\] 5.290e-03
*DRIVER i_ADS1292_DATA_OUT\[11\]
*CELL NULL
*C2_R1_C1 2.645e-03 7.940e-03 2.645e-03 
*LOADS
*RC U474:B 4.200e-05
*END

*R_NET i_ADS1292_DATA_OUT\[10\] 5.290e-03
*DRIVER i_ADS1292_DATA_OUT\[10\]
*CELL NULL
*C2_R1_C1 2.645e-03 7.940e-03 2.645e-03 
*LOADS
*RC U489:B 4.200e-05
*END

*R_NET i_ADS1292_DATA_OUT\[9\] 5.290e-03
*DRIVER i_ADS1292_DATA_OUT\[9\]
*CELL NULL
*C2_R1_C1 2.645e-03 7.940e-03 2.645e-03 
*LOADS
*RC U496:B 4.200e-05
*END

*R_NET i_ADS1292_DATA_OUT\[8\] 5.290e-03
*DRIVER i_ADS1292_DATA_OUT\[8\]
*CELL NULL
*C2_R1_C1 2.645e-03 7.940e-03 2.645e-03 
*LOADS
*RC U495:B 4.200e-05
*END

*R_NET i_ADS1292_DATA_OUT\[7\] 5.290e-03
*DRIVER i_ADS1292_DATA_OUT\[7\]
*CELL NULL
*C2_R1_C1 2.645e-03 7.940e-03 2.645e-03 
*LOADS
*RC U494:B 4.200e-05
*END

*R_NET i_ADS1292_DATA_OUT\[6\] 5.290e-03
*DRIVER i_ADS1292_DATA_OUT\[6\]
*CELL NULL
*C2_R1_C1 2.645e-03 7.940e-03 2.645e-03 
*LOADS
*RC U493:B 4.200e-05
*END

*R_NET i_ADS1292_DATA_OUT\[5\] 5.290e-03
*DRIVER i_ADS1292_DATA_OUT\[5\]
*CELL NULL
*C2_R1_C1 2.645e-03 7.940e-03 2.645e-03 
*LOADS
*RC U492:B 4.200e-05
*END

*R_NET i_ADS1292_DATA_OUT\[4\] 5.290e-03
*DRIVER i_ADS1292_DATA_OUT\[4\]
*CELL NULL
*C2_R1_C1 2.645e-03 7.940e-03 2.645e-03 
*LOADS
*RC U490:B 4.200e-05
*END

*R_NET i_ADS1292_DATA_OUT\[3\] 5.290e-03
*DRIVER i_ADS1292_DATA_OUT\[3\]
*CELL NULL
*C2_R1_C1 2.645e-03 7.940e-03 2.645e-03 
*LOADS
*RC U497:B 4.200e-05
*END

*R_NET i_ADS1292_DATA_OUT\[2\] 5.290e-03
*DRIVER i_ADS1292_DATA_OUT\[2\]
*CELL NULL
*C2_R1_C1 2.645e-03 7.940e-03 2.645e-03 
*LOADS
*RC U491:B 4.200e-05
*END

*R_NET i_ADS1292_DATA_OUT\[1\] 5.290e-03
*DRIVER i_ADS1292_DATA_OUT\[1\]
*CELL NULL
*C2_R1_C1 2.645e-03 7.940e-03 2.645e-03 
*LOADS
*RC U475:B 4.200e-05
*END

*R_NET i_ADS1292_DATA_OUT\[0\] 5.290e-03
*DRIVER i_ADS1292_DATA_OUT\[0\]
*CELL NULL
*C2_R1_C1 2.645e-03 7.940e-03 2.645e-03 
*LOADS
*RC U476:B 4.200e-05
*END

*R_NET i_ADS1292_DATA_VALID 5.750e-03
*DRIVER i_ADS1292_DATA_VALID
*CELL NULL
*C2_R1_C1 2.875e-03 7.940e-03 2.875e-03 
*LOADS
*RC U507:B 4.566e-05
*END

*R_NET o_ADS1292_FILTERED_DATA\[23\] 1.150e-02
*DRIVER o_ADS1292_FILTERED_DATA_reg_23_:Q
*CELL fd2qd1_hd
*C2_R1_C1 5.750e-03 1.157e-02 5.750e-03 
*LOADS
*RC U395:C 1.331e-04
*RC o_ADS1292_FILTERED_DATA\[23\] 1.331e-04
*END

*R_NET o_ADS1292_FILTERED_DATA\[22\] 1.150e-02
*DRIVER o_ADS1292_FILTERED_DATA_reg_22_:Q
*CELL fd2qd1_hd
*C2_R1_C1 5.750e-03 1.157e-02 5.750e-03 
*LOADS
*RC U381:C 1.331e-04
*RC o_ADS1292_FILTERED_DATA\[22\] 1.331e-04
*END

*R_NET o_ADS1292_FILTERED_DATA\[21\] 1.150e-02
*DRIVER o_ADS1292_FILTERED_DATA_reg_21_:Q
*CELL fd2qd1_hd
*C2_R1_C1 5.750e-03 1.157e-02 5.750e-03 
*LOADS
*RC U373:C 1.331e-04
*RC o_ADS1292_FILTERED_DATA\[21\] 1.331e-04
*END

*R_NET o_ADS1292_FILTERED_DATA\[20\] 1.150e-02
*DRIVER o_ADS1292_FILTERED_DATA_reg_20_:Q
*CELL fd2qd1_hd
*C2_R1_C1 5.750e-03 1.157e-02 5.750e-03 
*LOADS
*RC U377:C 1.331e-04
*RC o_ADS1292_FILTERED_DATA\[20\] 1.331e-04
*END

*R_NET o_ADS1292_FILTERED_DATA\[19\] 1.150e-02
*DRIVER o_ADS1292_FILTERED_DATA_reg_19_:Q
*CELL fd2qd1_hd
*C2_R1_C1 5.750e-03 1.157e-02 5.750e-03 
*LOADS
*RC U380:C 1.331e-04
*RC o_ADS1292_FILTERED_DATA\[19\] 1.331e-04
*END

*R_NET o_ADS1292_FILTERED_DATA\[18\] 1.150e-02
*DRIVER o_ADS1292_FILTERED_DATA_reg_18_:Q
*CELL fd2qd1_hd
*C2_R1_C1 5.750e-03 1.157e-02 5.750e-03 
*LOADS
*RC U383:C 1.331e-04
*RC o_ADS1292_FILTERED_DATA\[18\] 1.331e-04
*END

*R_NET o_ADS1292_FILTERED_DATA\[17\] 1.150e-02
*DRIVER o_ADS1292_FILTERED_DATA_reg_17_:Q
*CELL fd2qd1_hd
*C2_R1_C1 5.750e-03 1.157e-02 5.750e-03 
*LOADS
*RC U384:C 1.331e-04
*RC o_ADS1292_FILTERED_DATA\[17\] 1.331e-04
*END

*R_NET o_ADS1292_FILTERED_DATA\[16\] 1.150e-02
*DRIVER o_ADS1292_FILTERED_DATA_reg_16_:Q
*CELL fd2qd1_hd
*C2_R1_C1 5.750e-03 1.157e-02 5.750e-03 
*LOADS
*RC U388:C 1.331e-04
*RC o_ADS1292_FILTERED_DATA\[16\] 1.331e-04
*END

*R_NET o_ADS1292_FILTERED_DATA\[15\] 1.150e-02
*DRIVER o_ADS1292_FILTERED_DATA_reg_15_:Q
*CELL fd2qd1_hd
*C2_R1_C1 5.750e-03 1.157e-02 5.750e-03 
*LOADS
*RC U358:C 1.331e-04
*RC o_ADS1292_FILTERED_DATA\[15\] 1.331e-04
*END

*R_NET o_ADS1292_FILTERED_DATA\[14\] 1.150e-02
*DRIVER o_ADS1292_FILTERED_DATA_reg_14_:Q
*CELL fd2qd1_hd
*C2_R1_C1 5.750e-03 1.157e-02 5.750e-03 
*LOADS
*RC U351:C 1.331e-04
*RC o_ADS1292_FILTERED_DATA\[14\] 1.331e-04
*END

*R_NET o_ADS1292_FILTERED_DATA\[13\] 1.150e-02
*DRIVER o_ADS1292_FILTERED_DATA_reg_13_:Q
*CELL fd2qd1_hd
*C2_R1_C1 5.750e-03 1.157e-02 5.750e-03 
*LOADS
*RC U368:C 1.331e-04
*RC o_ADS1292_FILTERED_DATA\[13\] 1.331e-04
*END

*R_NET o_ADS1292_FILTERED_DATA\[12\] 1.150e-02
*DRIVER o_ADS1292_FILTERED_DATA_reg_12_:Q
*CELL fd2qd1_hd
*C2_R1_C1 5.750e-03 1.157e-02 5.750e-03 
*LOADS
*RC U466:C 1.331e-04
*RC o_ADS1292_FILTERED_DATA\[12\] 1.331e-04
*END

*R_NET o_ADS1292_FILTERED_DATA\[11\] 1.150e-02
*DRIVER o_ADS1292_FILTERED_DATA_reg_11_:Q
*CELL fd2qd1_hd
*C2_R1_C1 5.750e-03 1.157e-02 5.750e-03 
*LOADS
*RC U432:C 1.331e-04
*RC o_ADS1292_FILTERED_DATA\[11\] 1.331e-04
*END

*R_NET o_ADS1292_FILTERED_DATA\[10\] 1.150e-02
*DRIVER o_ADS1292_FILTERED_DATA_reg_10_:Q
*CELL fd2qd1_hd
*C2_R1_C1 5.750e-03 1.157e-02 5.750e-03 
*LOADS
*RC U441:C 1.331e-04
*RC o_ADS1292_FILTERED_DATA\[10\] 1.331e-04
*END

*R_NET o_ADS1292_FILTERED_DATA\[9\] 1.150e-02
*DRIVER o_ADS1292_FILTERED_DATA_reg_9_:Q
*CELL fd2qd1_hd
*C2_R1_C1 5.750e-03 1.157e-02 5.750e-03 
*LOADS
*RC U428:C 1.331e-04
*RC o_ADS1292_FILTERED_DATA\[9\] 1.331e-04
*END

*R_NET o_ADS1292_FILTERED_DATA\[8\] 1.150e-02
*DRIVER o_ADS1292_FILTERED_DATA_reg_8_:Q
*CELL fd2qd1_hd
*C2_R1_C1 5.750e-03 1.157e-02 5.750e-03 
*LOADS
*RC U424:C 1.331e-04
*RC o_ADS1292_FILTERED_DATA\[8\] 1.331e-04
*END

*R_NET o_ADS1292_FILTERED_DATA\[7\] 1.150e-02
*DRIVER o_ADS1292_FILTERED_DATA_reg_7_:Q
*CELL fd2qd1_hd
*C2_R1_C1 5.750e-03 1.157e-02 5.750e-03 
*LOADS
*RC U423:C 1.331e-04
*RC o_ADS1292_FILTERED_DATA\[7\] 1.331e-04
*END

*R_NET o_ADS1292_FILTERED_DATA\[6\] 1.150e-02
*DRIVER o_ADS1292_FILTERED_DATA_reg_6_:Q
*CELL fd2qd1_hd
*C2_R1_C1 5.750e-03 1.157e-02 5.750e-03 
*LOADS
*RC U421:C 1.331e-04
*RC o_ADS1292_FILTERED_DATA\[6\] 1.331e-04
*END

*R_NET o_ADS1292_FILTERED_DATA\[5\] 1.150e-02
*DRIVER o_ADS1292_FILTERED_DATA_reg_5_:Q
*CELL fd2qd1_hd
*C2_R1_C1 5.750e-03 1.157e-02 5.750e-03 
*LOADS
*RC U418:C 1.331e-04
*RC o_ADS1292_FILTERED_DATA\[5\] 1.331e-04
*END

*R_NET o_ADS1292_FILTERED_DATA\[4\] 1.150e-02
*DRIVER o_ADS1292_FILTERED_DATA_reg_4_:Q
*CELL fd2qd1_hd
*C2_R1_C1 5.750e-03 1.157e-02 5.750e-03 
*LOADS
*RC U463:C 1.331e-04
*RC o_ADS1292_FILTERED_DATA\[4\] 1.331e-04
*END

*R_NET o_ADS1292_FILTERED_DATA\[3\] 1.150e-02
*DRIVER o_ADS1292_FILTERED_DATA_reg_3_:Q
*CELL fd2qd1_hd
*C2_R1_C1 5.750e-03 1.157e-02 5.750e-03 
*LOADS
*RC U464:C 1.331e-04
*RC o_ADS1292_FILTERED_DATA\[3\] 1.331e-04
*END

*R_NET o_ADS1292_FILTERED_DATA\[2\] 1.150e-02
*DRIVER o_ADS1292_FILTERED_DATA_reg_2_:Q
*CELL fd2qd1_hd
*C2_R1_C1 5.750e-03 1.157e-02 5.750e-03 
*LOADS
*RC U460:C 1.331e-04
*RC o_ADS1292_FILTERED_DATA\[2\] 1.331e-04
*END

*R_NET o_ADS1292_FILTERED_DATA\[1\] 1.150e-02
*DRIVER o_ADS1292_FILTERED_DATA_reg_1_:Q
*CELL fd2qd1_hd
*C2_R1_C1 5.750e-03 1.157e-02 5.750e-03 
*LOADS
*RC U458:C 1.331e-04
*RC o_ADS1292_FILTERED_DATA\[1\] 1.331e-04
*END

*R_NET o_ADS1292_FILTERED_DATA\[0\] 1.150e-02
*DRIVER o_ADS1292_FILTERED_DATA_reg_0_:Q
*CELL fd2qd1_hd
*C2_R1_C1 5.750e-03 1.157e-02 5.750e-03 
*LOADS
*RC U457:C 1.331e-04
*RC o_ADS1292_FILTERED_DATA\[0\] 1.331e-04
*END

*R_NET o_ADS1292_FILTERED_DATA_VALID 3.093e-02
*DRIVER o_ADS1292_FILTERED_DATA_VALID_reg:Q
*CELL fd2qd1_hd
*C2_R1_C1 1.546e-02 1.824e-02 1.546e-02 
*LOADS
*RC U307:B 5.642e-04
*RC U521:B 5.642e-04
*RC U522:C 5.642e-04
*RC o_ADS1292_FILTERED_DATA_VALID 5.642e-04
*END

*R_NET i_ADS1292_FILTERED_DATA_ACK 1.505e-02
*DRIVER i_ADS1292_FILTERED_DATA_ACK
*CELL NULL
*C2_R1_C1 7.525e-03 1.157e-02 7.525e-03 
*LOADS
*RC U307:A 1.741e-04
*RC U521:A 1.741e-04
*END

*R_NET r_converter_i2f_a\[31\] 1.285e-02
*DRIVER r_converter_i2f_a_reg_31_:Q
*CELL fd2qd1_hd
*C2_R1_C1 6.425e-03 1.157e-02 6.425e-03 
*LOADS
*RC U479:C 1.487e-04
*RC converter_i2f/a_reg_31_:D 1.487e-04
*END

*R_NET r_converter_i2f_a\[30\] 1.285e-02
*DRIVER r_converter_i2f_a_reg_30_:Q
*CELL fd2qd1_hd
*C2_R1_C1 6.425e-03 1.157e-02 6.425e-03 
*LOADS
*RC U480:C 1.487e-04
*RC converter_i2f/a_reg_30_:D 1.487e-04
*END

*R_NET r_converter_i2f_a\[29\] 1.285e-02
*DRIVER r_converter_i2f_a_reg_29_:Q
*CELL fd2qd1_hd
*C2_R1_C1 6.425e-03 1.157e-02 6.425e-03 
*LOADS
*RC U481:C 1.487e-04
*RC converter_i2f/a_reg_29_:D 1.487e-04
*END

*R_NET r_converter_i2f_a\[28\] 1.285e-02
*DRIVER r_converter_i2f_a_reg_28_:Q
*CELL fd2qd1_hd
*C2_R1_C1 6.425e-03 1.157e-02 6.425e-03 
*LOADS
*RC U482:C 1.487e-04
*RC converter_i2f/a_reg_28_:D 1.487e-04
*END

*R_NET r_converter_i2f_a\[27\] 1.285e-02
*DRIVER r_converter_i2f_a_reg_27_:Q
*CELL fd2qd1_hd
*C2_R1_C1 6.425e-03 1.157e-02 6.425e-03 
*LOADS
*RC U483:C 1.487e-04
*RC converter_i2f/a_reg_27_:D 1.487e-04
*END

*R_NET r_converter_i2f_a\[26\] 1.285e-02
*DRIVER r_converter_i2f_a_reg_26_:Q
*CELL fd2qd1_hd
*C2_R1_C1 6.425e-03 1.157e-02 6.425e-03 
*LOADS
*RC U484:C 1.487e-04
*RC converter_i2f/a_reg_26_:D 1.487e-04
*END

*R_NET r_converter_i2f_a\[25\] 1.285e-02
*DRIVER r_converter_i2f_a_reg_25_:Q
*CELL fd2qd1_hd
*C2_R1_C1 6.425e-03 1.157e-02 6.425e-03 
*LOADS
*RC U485:C 1.487e-04
*RC converter_i2f/a_reg_25_:D 1.487e-04
*END

*R_NET r_converter_i2f_a\[24\] 1.285e-02
*DRIVER r_converter_i2f_a_reg_24_:Q
*CELL fd2qd1_hd
*C2_R1_C1 6.425e-03 1.157e-02 6.425e-03 
*LOADS
*RC U486:C 1.487e-04
*RC converter_i2f/a_reg_24_:D 1.487e-04
*END

*R_NET r_converter_i2f_a\[23\] 1.285e-02
*DRIVER r_converter_i2f_a_reg_23_:Q
*CELL fd2qd1_hd
*C2_R1_C1 6.425e-03 1.157e-02 6.425e-03 
*LOADS
*RC U487:C 1.487e-04
*RC converter_i2f/a_reg_23_:D 1.487e-04
*END

*R_NET r_converter_i2f_a\[22\] 1.285e-02
*DRIVER r_converter_i2f_a_reg_22_:Q
*CELL fd2qd1_hd
*C2_R1_C1 6.425e-03 1.157e-02 6.425e-03 
*LOADS
*RC U488:C 1.487e-04
*RC converter_i2f/a_reg_22_:D 1.487e-04
*END

*R_NET r_converter_i2f_a\[21\] 1.285e-02
*DRIVER r_converter_i2f_a_reg_21_:Q
*CELL fd2qd1_hd
*C2_R1_C1 6.425e-03 1.157e-02 6.425e-03 
*LOADS
*RC U478:C 1.487e-04
*RC converter_i2f/a_reg_21_:D 1.487e-04
*END

*R_NET r_converter_i2f_a\[20\] 1.285e-02
*DRIVER r_converter_i2f_a_reg_20_:Q
*CELL fd2qd1_hd
*C2_R1_C1 6.425e-03 1.157e-02 6.425e-03 
*LOADS
*RC U473:C 1.487e-04
*RC converter_i2f/a_reg_20_:D 1.487e-04
*END

*R_NET r_converter_i2f_a\[19\] 1.285e-02
*DRIVER r_converter_i2f_a_reg_19_:Q
*CELL fd2qd1_hd
*C2_R1_C1 6.425e-03 1.157e-02 6.425e-03 
*LOADS
*RC U474:C 1.487e-04
*RC converter_i2f/a_reg_19_:D 1.487e-04
*END

*R_NET r_converter_i2f_a\[18\] 1.285e-02
*DRIVER r_converter_i2f_a_reg_18_:Q
*CELL fd2qd1_hd
*C2_R1_C1 6.425e-03 1.157e-02 6.425e-03 
*LOADS
*RC U489:C 1.487e-04
*RC converter_i2f/a_reg_18_:D 1.487e-04
*END

*R_NET r_converter_i2f_a\[17\] 1.285e-02
*DRIVER r_converter_i2f_a_reg_17_:Q
*CELL fd2qd1_hd
*C2_R1_C1 6.425e-03 1.157e-02 6.425e-03 
*LOADS
*RC U496:C 1.487e-04
*RC converter_i2f/a_reg_17_:D 1.487e-04
*END

*R_NET r_converter_i2f_a\[16\] 1.285e-02
*DRIVER r_converter_i2f_a_reg_16_:Q
*CELL fd2qd1_hd
*C2_R1_C1 6.425e-03 1.157e-02 6.425e-03 
*LOADS
*RC U495:C 1.487e-04
*RC converter_i2f/a_reg_16_:D 1.487e-04
*END

*R_NET r_converter_i2f_a\[15\] 1.285e-02
*DRIVER r_converter_i2f_a_reg_15_:Q
*CELL fd2qd1_hd
*C2_R1_C1 6.425e-03 1.157e-02 6.425e-03 
*LOADS
*RC U494:C 1.487e-04
*RC converter_i2f/a_reg_15_:D 1.487e-04
*END

*R_NET r_converter_i2f_a\[14\] 1.285e-02
*DRIVER r_converter_i2f_a_reg_14_:Q
*CELL fd2qd1_hd
*C2_R1_C1 6.425e-03 1.157e-02 6.425e-03 
*LOADS
*RC U493:C 1.487e-04
*RC converter_i2f/a_reg_14_:D 1.487e-04
*END

*R_NET r_converter_i2f_a\[13\] 1.285e-02
*DRIVER r_converter_i2f_a_reg_13_:Q
*CELL fd2qd1_hd
*C2_R1_C1 6.425e-03 1.157e-02 6.425e-03 
*LOADS
*RC U492:C 1.487e-04
*RC converter_i2f/a_reg_13_:D 1.487e-04
*END

*R_NET r_converter_i2f_a\[12\] 1.285e-02
*DRIVER r_converter_i2f_a_reg_12_:Q
*CELL fd2qd1_hd
*C2_R1_C1 6.425e-03 1.157e-02 6.425e-03 
*LOADS
*RC U490:C 1.487e-04
*RC converter_i2f/a_reg_12_:D 1.487e-04
*END

*R_NET r_converter_i2f_a\[11\] 1.285e-02
*DRIVER r_converter_i2f_a_reg_11_:Q
*CELL fd2qd1_hd
*C2_R1_C1 6.425e-03 1.157e-02 6.425e-03 
*LOADS
*RC U497:C 1.487e-04
*RC converter_i2f/a_reg_11_:D 1.487e-04
*END

*R_NET r_converter_i2f_a\[10\] 1.285e-02
*DRIVER r_converter_i2f_a_reg_10_:Q
*CELL fd2qd1_hd
*C2_R1_C1 6.425e-03 1.157e-02 6.425e-03 
*LOADS
*RC U491:C 1.487e-04
*RC converter_i2f/a_reg_10_:D 1.487e-04
*END

*R_NET r_converter_i2f_a\[9\] 1.285e-02
*DRIVER r_converter_i2f_a_reg_9_:Q
*CELL fd2qd1_hd
*C2_R1_C1 6.425e-03 1.157e-02 6.425e-03 
*LOADS
*RC U475:C 1.487e-04
*RC converter_i2f/a_reg_9_:D 1.487e-04
*END

*R_NET r_converter_i2f_a\[8\] 1.285e-02
*DRIVER r_converter_i2f_a_reg_8_:Q
*CELL fd2qd1_hd
*C2_R1_C1 6.425e-03 1.157e-02 6.425e-03 
*LOADS
*RC U476:C 1.487e-04
*RC converter_i2f/a_reg_8_:D 1.487e-04
*END

*R_NET r_converter_i2f_a_stb 1.398e-02
*DRIVER r_converter_i2f_a_stb_reg:Q
*CELL fd2qd1_hd
*C2_R1_C1 6.990e-03 1.157e-02 6.990e-03 
*LOADS
*RC U534:D 1.617e-04
*RC converter_i2f/U576:B 1.617e-04
*END

*R_NET w_converter_i2f_a_ack 4.014e-02
*DRIVER converter_i2f/o_A_ACK_reg:Q
*CELL fd1qd1_hd
*C2_R1_C1 2.007e-02 1.956e-02 2.007e-02 
*LOADS
*RC converter_i2f/U576:C 7.851e-04
*RC converter_i2f/U577:B 7.851e-04
*RC U308:B 7.851e-04
*RC U540:B 7.851e-04
*RC U551:A 7.851e-04
*END

*R_NET w_converter_i2f_z\[31\] 5.290e-03
*DRIVER converter_i2f/o_Z_reg_31_:Q
*CELL fd1eqd1_hd
*C2_R1_C1 2.645e-03 7.940e-03 2.645e-03 
*LOADS
*RC U442:B 4.200e-05
*END

*R_NET w_converter_i2f_z\[30\] 5.290e-03
*DRIVER converter_i2f/o_Z_reg_30_:Q
*CELL fd1eqd1_hd
*C2_R1_C1 2.645e-03 7.940e-03 2.645e-03 
*LOADS
*RC U436:B 4.200e-05
*END

*R_NET w_converter_i2f_z\[29\] 5.290e-03
*DRIVER converter_i2f/o_Z_reg_29_:Q
*CELL fd1eqd1_hd
*C2_R1_C1 2.645e-03 7.940e-03 2.645e-03 
*LOADS
*RC U431:B 4.200e-05
*END

*R_NET w_converter_i2f_z\[28\] 5.290e-03
*DRIVER converter_i2f/o_Z_reg_28_:Q
*CELL fd1eqd1_hd
*C2_R1_C1 2.645e-03 7.940e-03 2.645e-03 
*LOADS
*RC U422:B 4.200e-05
*END

*R_NET w_converter_i2f_z\[27\] 5.290e-03
*DRIVER converter_i2f/o_Z_reg_27_:Q
*CELL fd1eqd1_hd
*C2_R1_C1 2.645e-03 7.940e-03 2.645e-03 
*LOADS
*RC U420:B 4.200e-05
*END

*R_NET w_converter_i2f_z\[26\] 5.290e-03
*DRIVER converter_i2f/o_Z_reg_26_:Q
*CELL fd1eqd1_hd
*C2_R1_C1 2.645e-03 7.940e-03 2.645e-03 
*LOADS
*RC U417:B 4.200e-05
*END

*R_NET w_converter_i2f_z\[25\] 5.290e-03
*DRIVER converter_i2f/o_Z_reg_25_:Q
*CELL fd1eqd1_hd
*C2_R1_C1 2.645e-03 7.940e-03 2.645e-03 
*LOADS
*RC U465:B 4.200e-05
*END

*R_NET w_converter_i2f_z\[24\] 5.290e-03
*DRIVER converter_i2f/o_Z_reg_24_:Q
*CELL fd1eqd1_hd
*C2_R1_C1 2.645e-03 7.940e-03 2.645e-03 
*LOADS
*RC U461:B 4.200e-05
*END

*R_NET w_converter_i2f_z\[23\] 5.290e-03
*DRIVER converter_i2f/o_Z_reg_23_:Q
*CELL fd1eqd1_hd
*C2_R1_C1 2.645e-03 7.940e-03 2.645e-03 
*LOADS
*RC U455:B 4.200e-05
*END

*R_NET w_converter_i2f_z\[22\] 5.290e-03
*DRIVER converter_i2f/o_Z_reg_22_:Q
*CELL fd1eqd1_hd
*C2_R1_C1 2.645e-03 7.940e-03 2.645e-03 
*LOADS
*RC U467:B 4.200e-05
*END

*R_NET w_converter_i2f_z\[21\] 5.290e-03
*DRIVER converter_i2f/o_Z_reg_21_:Q
*CELL fd1eqd1_hd
*C2_R1_C1 2.645e-03 7.940e-03 2.645e-03 
*LOADS
*RC U433:B 4.200e-05
*END

*R_NET w_converter_i2f_z\[20\] 5.290e-03
*DRIVER converter_i2f/o_Z_reg_20_:Q
*CELL fd1eqd1_hd
*C2_R1_C1 2.645e-03 7.940e-03 2.645e-03 
*LOADS
*RC U437:B 4.200e-05
*END

*R_NET w_converter_i2f_z\[19\] 5.290e-03
*DRIVER converter_i2f/o_Z_reg_19_:Q
*CELL fd1eqd1_hd
*C2_R1_C1 2.645e-03 7.940e-03 2.645e-03 
*LOADS
*RC U446:B 4.200e-05
*END

*R_NET w_converter_i2f_z\[18\] 5.290e-03
*DRIVER converter_i2f/o_Z_reg_18_:Q
*CELL fd1eqd1_hd
*C2_R1_C1 2.645e-03 7.940e-03 2.645e-03 
*LOADS
*RC U449:B 4.200e-05
*END

*R_NET w_converter_i2f_z\[17\] 5.290e-03
*DRIVER converter_i2f/o_Z_reg_17_:Q
*CELL fd1eqd1_hd
*C2_R1_C1 2.645e-03 7.940e-03 2.645e-03 
*LOADS
*RC U452:B 4.200e-05
*END

*R_NET w_converter_i2f_z\[16\] 5.290e-03
*DRIVER converter_i2f/o_Z_reg_16_:Q
*CELL fd1eqd1_hd
*C2_R1_C1 2.645e-03 7.940e-03 2.645e-03 
*LOADS
*RC U454:B 4.200e-05
*END

*R_NET w_converter_i2f_z\[15\] 5.290e-03
*DRIVER converter_i2f/o_Z_reg_15_:Q
*CELL fd1eqd1_hd
*C2_R1_C1 2.645e-03 7.940e-03 2.645e-03 
*LOADS
*RC U468:B 4.200e-05
*END

*R_NET w_converter_i2f_z\[14\] 5.290e-03
*DRIVER converter_i2f/o_Z_reg_14_:Q
*CELL fd1eqd1_hd
*C2_R1_C1 2.645e-03 7.940e-03 2.645e-03 
*LOADS
*RC U429:B 4.200e-05
*END

*R_NET w_converter_i2f_z\[13\] 5.290e-03
*DRIVER converter_i2f/o_Z_reg_13_:Q
*CELL fd1eqd1_hd
*C2_R1_C1 2.645e-03 7.940e-03 2.645e-03 
*LOADS
*RC U434:B 4.200e-05
*END

*R_NET w_converter_i2f_z\[12\] 5.290e-03
*DRIVER converter_i2f/o_Z_reg_12_:Q
*CELL fd1eqd1_hd
*C2_R1_C1 2.645e-03 7.940e-03 2.645e-03 
*LOADS
*RC U445:B 4.200e-05
*END

*R_NET w_converter_i2f_z\[11\] 5.290e-03
*DRIVER converter_i2f/o_Z_reg_11_:Q
*CELL fd1eqd1_hd
*C2_R1_C1 2.645e-03 7.940e-03 2.645e-03 
*LOADS
*RC U451:B 4.200e-05
*END

*R_NET w_converter_i2f_z\[10\] 5.290e-03
*DRIVER converter_i2f/o_Z_reg_10_:Q
*CELL fd1eqd1_hd
*C2_R1_C1 2.645e-03 7.940e-03 2.645e-03 
*LOADS
*RC U450:B 4.200e-05
*END

*R_NET w_converter_i2f_z\[9\] 5.290e-03
*DRIVER converter_i2f/o_Z_reg_9_:Q
*CELL fd1eqd1_hd
*C2_R1_C1 2.645e-03 7.940e-03 2.645e-03 
*LOADS
*RC U448:B 4.200e-05
*END

*R_NET w_converter_i2f_z\[8\] 5.290e-03
*DRIVER converter_i2f/o_Z_reg_8_:Q
*CELL fd1eqd1_hd
*C2_R1_C1 2.645e-03 7.940e-03 2.645e-03 
*LOADS
*RC U447:B 4.200e-05
*END

*R_NET w_converter_i2f_z\[7\] 5.290e-03
*DRIVER converter_i2f/o_Z_reg_7_:Q
*CELL fd1eqd1_hd
*C2_R1_C1 2.645e-03 7.940e-03 2.645e-03 
*LOADS
*RC U444:B 4.200e-05
*END

*R_NET w_converter_i2f_z\[6\] 5.290e-03
*DRIVER converter_i2f/o_Z_reg_6_:Q
*CELL fd1eqd1_hd
*C2_R1_C1 2.645e-03 7.940e-03 2.645e-03 
*LOADS
*RC U443:B 4.200e-05
*END

*R_NET w_converter_i2f_z\[5\] 5.290e-03
*DRIVER converter_i2f/o_Z_reg_5_:Q
*CELL fd1eqd1_hd
*C2_R1_C1 2.645e-03 7.940e-03 2.645e-03 
*LOADS
*RC U440:B 4.200e-05
*END

*R_NET w_converter_i2f_z\[4\] 5.290e-03
*DRIVER converter_i2f/o_Z_reg_4_:Q
*CELL fd1eqd1_hd
*C2_R1_C1 2.645e-03 7.940e-03 2.645e-03 
*LOADS
*RC U438:B 4.200e-05
*END

*R_NET w_converter_i2f_z\[3\] 5.290e-03
*DRIVER converter_i2f/o_Z_reg_3_:Q
*CELL fd1eqd1_hd
*C2_R1_C1 2.645e-03 7.940e-03 2.645e-03 
*LOADS
*RC U435:B 4.200e-05
*END

*R_NET w_converter_i2f_z\[2\] 5.290e-03
*DRIVER converter_i2f/o_Z_reg_2_:Q
*CELL fd1eqd1_hd
*C2_R1_C1 2.645e-03 7.940e-03 2.645e-03 
*LOADS
*RC U430:B 4.200e-05
*END

*R_NET w_converter_i2f_z\[1\] 5.290e-03
*DRIVER converter_i2f/o_Z_reg_1_:Q
*CELL fd1eqd1_hd
*C2_R1_C1 2.645e-03 7.940e-03 2.645e-03 
*LOADS
*RC U427:B 4.200e-05
*END

*R_NET w_converter_i2f_z\[0\] 5.290e-03
*DRIVER converter_i2f/o_Z_reg_0_:Q
*CELL fd1eqd1_hd
*C2_R1_C1 2.645e-03 7.940e-03 2.645e-03 
*LOADS
*RC U425:B 4.200e-05
*END

*R_NET w_converter_i2f_z_stb 3.118e-02
*DRIVER converter_i2f/o_Z_STB_reg:Q
*CELL fd1qd1_hd
*C2_R1_C1 1.559e-02 1.824e-02 1.559e-02 
*LOADS
*RC converter_i2f/U302:B 5.687e-04
*RC converter_i2f/U304:C 5.687e-04
*RC U297:B 5.687e-04
*RC U544:C 5.687e-04
*END

*R_NET r_converter_i2f_z_ack 1.308e-02
*DRIVER r_converter_i2f_z_ack_reg:Q
*CELL fd2qd1_hd
*C2_R1_C1 6.540e-03 1.157e-02 6.540e-03 
*LOADS
*RC U529:D 1.513e-04
*RC converter_i2f/U304:B 1.513e-04
*END

*R_NET r_iir_lpf_x\[31\] 1.313e-02
*DRIVER r_iir_lpf_x_reg_31_:Q
*CELL fd2qd1_hd
*C2_R1_C1 6.565e-03 1.157e-02 6.565e-03 
*LOADS
*RC U442:C 1.519e-04
*RC iir_lpf/U639:B 1.519e-04
*END

*R_NET r_iir_lpf_x\[30\] 1.313e-02
*DRIVER r_iir_lpf_x_reg_30_:Q
*CELL fd2qd1_hd
*C2_R1_C1 6.565e-03 1.157e-02 6.565e-03 
*LOADS
*RC U436:C 1.519e-04
*RC iir_lpf/U638:B 1.519e-04
*END

*R_NET r_iir_lpf_x\[29\] 1.313e-02
*DRIVER r_iir_lpf_x_reg_29_:Q
*CELL fd2qd1_hd
*C2_R1_C1 6.565e-03 1.157e-02 6.565e-03 
*LOADS
*RC U431:C 1.519e-04
*RC iir_lpf/U653:B 1.519e-04
*END

*R_NET r_iir_lpf_x\[28\] 1.313e-02
*DRIVER r_iir_lpf_x_reg_28_:Q
*CELL fd2qd1_hd
*C2_R1_C1 6.565e-03 1.157e-02 6.565e-03 
*LOADS
*RC U422:C 1.519e-04
*RC iir_lpf/U647:B 1.519e-04
*END

*R_NET r_iir_lpf_x\[27\] 1.354e-02
*DRIVER r_iir_lpf_x_reg_27_:Q
*CELL fd2qd1_hd
*C2_R1_C1 6.770e-03 1.157e-02 6.770e-03 
*LOADS
*RC U420:C 1.567e-04
*RC iir_lpf/U626:B 1.567e-04
*END

*R_NET r_iir_lpf_x\[26\] 1.354e-02
*DRIVER r_iir_lpf_x_reg_26_:Q
*CELL fd2qd1_hd
*C2_R1_C1 6.770e-03 1.157e-02 6.770e-03 
*LOADS
*RC U417:C 1.567e-04
*RC iir_lpf/U625:B 1.567e-04
*END

*R_NET r_iir_lpf_x\[25\] 1.354e-02
*DRIVER r_iir_lpf_x_reg_25_:Q
*CELL fd2qd1_hd
*C2_R1_C1 6.770e-03 1.157e-02 6.770e-03 
*LOADS
*RC U465:C 1.567e-04
*RC iir_lpf/U624:B 1.567e-04
*END

*R_NET r_iir_lpf_x\[24\] 1.354e-02
*DRIVER r_iir_lpf_x_reg_24_:Q
*CELL fd2qd1_hd
*C2_R1_C1 6.770e-03 1.157e-02 6.770e-03 
*LOADS
*RC U461:C 1.567e-04
*RC iir_lpf/U623:B 1.567e-04
*END

*R_NET r_iir_lpf_x\[23\] 1.354e-02
*DRIVER r_iir_lpf_x_reg_23_:Q
*CELL fd2qd1_hd
*C2_R1_C1 6.770e-03 1.157e-02 6.770e-03 
*LOADS
*RC U455:C 1.567e-04
*RC iir_lpf/U622:B 1.567e-04
*END

*R_NET r_iir_lpf_x\[22\] 1.354e-02
*DRIVER r_iir_lpf_x_reg_22_:Q
*CELL fd2qd1_hd
*C2_R1_C1 6.770e-03 1.157e-02 6.770e-03 
*LOADS
*RC U467:C 1.567e-04
*RC iir_lpf/U621:B 1.567e-04
*END

*R_NET r_iir_lpf_x\[21\] 1.354e-02
*DRIVER r_iir_lpf_x_reg_21_:Q
*CELL fd2qd1_hd
*C2_R1_C1 6.770e-03 1.157e-02 6.770e-03 
*LOADS
*RC U433:C 1.567e-04
*RC iir_lpf/U620:B 1.567e-04
*END
