*SPEF "IEEE 1481-1999"
*DESIGN "iir_hpf"
*DATE "Wed Aug 26 17:14:36 2020"
*VENDOR "SYNOPSYS INC"
*PROGRAM "Synopsys Design Compiler cmos"
*VERSION "F-2011.09-SP5-3"
*DESIGN_FLOW "SYNTHESIS"
*DIVIDER /
*DELIMITER :
*BUS_DELIMITER []
*T_UNIT 1.0 NS
*C_UNIT 1.0 PF
*R_UNIT 1.0 KOHM
*L_UNIT 1.0 HENRY

*PORTS

i_X_DATA\[31\] I *L 1.900e-03 *S 1.462e-01 1.662e-01 *D fd4qd1_hd 
i_X_DATA\[30\] I *L 1.900e-03 *S 1.462e-01 1.662e-01 *D fd4qd1_hd 
i_X_DATA\[29\] I *L 1.900e-03 *S 1.462e-01 1.662e-01 *D fd4qd1_hd 
i_X_DATA\[28\] I *L 1.900e-03 *S 1.462e-01 1.662e-01 *D fd4qd1_hd 
i_X_DATA\[27\] I *L 1.900e-03 *S 1.462e-01 1.662e-01 *D fd4qd1_hd 
i_X_DATA\[26\] I *L 1.900e-03 *S 1.462e-01 1.662e-01 *D fd4qd1_hd 
i_X_DATA\[25\] I *L 1.900e-03 *S 1.462e-01 1.662e-01 *D fd4qd1_hd 
i_X_DATA\[24\] I *L 1.900e-03 *S 1.462e-01 1.662e-01 *D fd4qd1_hd 
i_X_DATA\[23\] I *L 1.900e-03 *S 1.462e-01 1.662e-01 *D fd4qd1_hd 
i_X_DATA\[22\] I *L 1.900e-03 *S 1.462e-01 1.662e-01 *D fd4qd1_hd 
i_X_DATA\[21\] I *L 1.900e-03 *S 1.462e-01 1.662e-01 *D fd4qd1_hd 
i_X_DATA\[20\] I *L 1.900e-03 *S 1.462e-01 1.662e-01 *D fd4qd1_hd 
i_X_DATA\[19\] I *L 1.900e-03 *S 1.462e-01 1.662e-01 *D fd4qd1_hd 
i_X_DATA\[18\] I *L 1.900e-03 *S 1.462e-01 1.662e-01 *D fd4qd1_hd 
i_X_DATA\[17\] I *L 1.900e-03 *S 1.462e-01 1.662e-01 *D fd4qd1_hd 
i_X_DATA\[16\] I *L 1.900e-03 *S 1.462e-01 1.662e-01 *D fd4qd1_hd 
i_X_DATA\[15\] I *L 1.900e-03 *S 1.462e-01 1.662e-01 *D fd4qd1_hd 
i_X_DATA\[14\] I *L 1.900e-03 *S 1.462e-01 1.662e-01 *D fd4qd1_hd 
i_X_DATA\[13\] I *L 1.900e-03 *S 1.462e-01 1.662e-01 *D fd4qd1_hd 
i_X_DATA\[12\] I *L 1.900e-03 *S 1.462e-01 1.662e-01 *D fd4qd1_hd 
i_X_DATA\[11\] I *L 1.900e-03 *S 1.462e-01 1.662e-01 *D fd4qd1_hd 
i_X_DATA\[10\] I *L 1.900e-03 *S 1.462e-01 1.662e-01 *D fd4qd1_hd 
i_X_DATA\[9\] I *L 1.900e-03 *S 1.462e-01 1.662e-01 *D fd4qd1_hd 
i_X_DATA\[8\] I *L 1.900e-03 *S 1.462e-01 1.662e-01 *D fd4qd1_hd 
i_X_DATA\[7\] I *L 1.900e-03 *S 1.462e-01 1.662e-01 *D fd4qd1_hd 
i_X_DATA\[6\] I *L 1.900e-03 *S 1.462e-01 1.662e-01 *D fd4qd1_hd 
i_X_DATA\[5\] I *L 1.900e-03 *S 1.462e-01 1.662e-01 *D fd4qd1_hd 
i_X_DATA\[4\] I *L 1.900e-03 *S 1.462e-01 1.662e-01 *D fd4qd1_hd 
i_X_DATA\[3\] I *L 1.900e-03 *S 1.462e-01 1.662e-01 *D fd4qd1_hd 
i_X_DATA\[2\] I *L 1.900e-03 *S 1.462e-01 1.662e-01 *D fd4qd1_hd 
i_X_DATA\[1\] I *L 1.900e-03 *S 1.462e-01 1.662e-01 *D fd4qd1_hd 
i_X_DATA\[0\] I *L 1.900e-03 *S 1.462e-01 1.662e-01 *D fd4qd1_hd 
i_X_DATA_VALID I *L 1.900e-03 *S 2.142e-01 2.282e-01 *D fd4qd1_hd 
o_X_DATA_READY O *L 1.035e-02 *S 3.306e-01 2.313e-01 
o_Y_DATA\[31\] O *L 1.035e-02 *S 2.657e-01 2.903e-01 
o_Y_DATA\[30\] O *L 1.035e-02 *S 3.494e-01 3.584e-01 
o_Y_DATA\[29\] O *L 1.035e-02 *S 2.653e-01 2.899e-01 
o_Y_DATA\[28\] O *L 1.035e-02 *S 2.653e-01 2.899e-01 
o_Y_DATA\[27\] O *L 1.035e-02 *S 2.653e-01 2.899e-01 
o_Y_DATA\[26\] O *L 1.035e-02 *S 2.653e-01 2.899e-01 
o_Y_DATA\[25\] O *L 1.035e-02 *S 2.653e-01 2.899e-01 
o_Y_DATA\[24\] O *L 1.035e-02 *S 2.653e-01 2.899e-01 
o_Y_DATA\[23\] O *L 1.035e-02 *S 2.653e-01 2.899e-01 
o_Y_DATA\[22\] O *L 1.035e-02 *S 2.653e-01 2.899e-01 
o_Y_DATA\[21\] O *L 1.035e-02 *S 2.653e-01 2.899e-01 
o_Y_DATA\[20\] O *L 1.035e-02 *S 2.653e-01 2.899e-01 
o_Y_DATA\[19\] O *L 1.035e-02 *S 2.653e-01 2.899e-01 
o_Y_DATA\[18\] O *L 1.035e-02 *S 2.653e-01 2.899e-01 
o_Y_DATA\[17\] O *L 1.035e-02 *S 2.653e-01 2.899e-01 
o_Y_DATA\[16\] O *L 1.035e-02 *S 2.653e-01 2.899e-01 
o_Y_DATA\[15\] O *L 1.035e-02 *S 2.653e-01 2.899e-01 
o_Y_DATA\[14\] O *L 1.035e-02 *S 2.653e-01 2.899e-01 
o_Y_DATA\[13\] O *L 1.035e-02 *S 2.653e-01 2.899e-01 
o_Y_DATA\[12\] O *L 1.035e-02 *S 2.653e-01 2.899e-01 
o_Y_DATA\[11\] O *L 1.035e-02 *S 2.653e-01 2.899e-01 
o_Y_DATA\[10\] O *L 1.035e-02 *S 2.653e-01 2.899e-01 
o_Y_DATA\[9\] O *L 1.035e-02 *S 2.653e-01 2.899e-01 
o_Y_DATA\[8\] O *L 1.035e-02 *S 2.653e-01 2.899e-01 
o_Y_DATA\[7\] O *L 1.035e-02 *S 2.653e-01 2.899e-01 
o_Y_DATA\[6\] O *L 1.035e-02 *S 2.653e-01 2.899e-01 
o_Y_DATA\[5\] O *L 1.035e-02 *S 2.653e-01 2.899e-01 
o_Y_DATA\[4\] O *L 1.035e-02 *S 2.653e-01 2.899e-01 
o_Y_DATA\[3\] O *L 1.035e-02 *S 2.653e-01 2.899e-01 
o_Y_DATA\[2\] O *L 1.035e-02 *S 2.653e-01 2.899e-01 
o_Y_DATA\[1\] O *L 1.035e-02 *S 2.653e-01 2.899e-01 
o_Y_DATA\[0\] O *L 1.035e-02 *S 2.653e-01 2.899e-01 
o_Y_DATA_VALID O *L 1.035e-02 *S 3.345e-01 3.464e-01 
i_Y_ACK I *L 1.900e-03 *S 1.506e-01 1.704e-01 *D fd4qd1_hd 
i_CLK I *L 0.000e+00 *S 0.000e+00 0.000e+00 
i_RSTN I *L 1.656e-01 *S 0.000e+00 0.000e+00 *D nid6_hd 

*R_NET i_X_DATA\[31\] 1.453e-02
*DRIVER i_X_DATA\[31\]
*CELL fd4qd1_hd
*C2_R1_C1 7.265e-03 1.275e-02 7.265e-03 
*LOADS
*RC r_x_data_reg_31_:D 1.853e-04
*END

*R_NET i_X_DATA\[30\] 1.453e-02
*DRIVER i_X_DATA\[30\]
*CELL fd4qd1_hd
*C2_R1_C1 7.265e-03 1.275e-02 7.265e-03 
*LOADS
*RC r_x_data_reg_30_:D 1.853e-04
*END

*R_NET i_X_DATA\[29\] 1.453e-02
*DRIVER i_X_DATA\[29\]
*CELL fd4qd1_hd
*C2_R1_C1 7.265e-03 1.275e-02 7.265e-03 
*LOADS
*RC r_x_data_reg_29_:D 1.853e-04
*END

*R_NET i_X_DATA\[28\] 1.453e-02
*DRIVER i_X_DATA\[28\]
*CELL fd4qd1_hd
*C2_R1_C1 7.265e-03 1.275e-02 7.265e-03 
*LOADS
*RC r_x_data_reg_28_:D 1.853e-04
*END

*R_NET i_X_DATA\[27\] 1.453e-02
*DRIVER i_X_DATA\[27\]
*CELL fd4qd1_hd
*C2_R1_C1 7.265e-03 1.275e-02 7.265e-03 
*LOADS
*RC r_x_data_reg_27_:D 1.853e-04
*END

*R_NET i_X_DATA\[26\] 1.453e-02
*DRIVER i_X_DATA\[26\]
*CELL fd4qd1_hd
*C2_R1_C1 7.265e-03 1.275e-02 7.265e-03 
*LOADS
*RC r_x_data_reg_26_:D 1.853e-04
*END

*R_NET i_X_DATA\[25\] 1.453e-02
*DRIVER i_X_DATA\[25\]
*CELL fd4qd1_hd
*C2_R1_C1 7.265e-03 1.275e-02 7.265e-03 
*LOADS
*RC r_x_data_reg_25_:D 1.853e-04
*END

*R_NET i_X_DATA\[24\] 1.453e-02
*DRIVER i_X_DATA\[24\]
*CELL fd4qd1_hd
*C2_R1_C1 7.265e-03 1.275e-02 7.265e-03 
*LOADS
*RC r_x_data_reg_24_:D 1.853e-04
*END

*R_NET i_X_DATA\[23\] 1.453e-02
*DRIVER i_X_DATA\[23\]
*CELL fd4qd1_hd
*C2_R1_C1 7.265e-03 1.275e-02 7.265e-03 
*LOADS
*RC r_x_data_reg_23_:D 1.853e-04
*END

*R_NET i_X_DATA\[22\] 1.453e-02
*DRIVER i_X_DATA\[22\]
*CELL fd4qd1_hd
*C2_R1_C1 7.265e-03 1.275e-02 7.265e-03 
*LOADS
*RC r_x_data_reg_22_:D 1.853e-04
*END

*R_NET i_X_DATA\[21\] 1.453e-02
*DRIVER i_X_DATA\[21\]
*CELL fd4qd1_hd
*C2_R1_C1 7.265e-03 1.275e-02 7.265e-03 
*LOADS
*RC r_x_data_reg_21_:D 1.853e-04
*END

*R_NET i_X_DATA\[20\] 1.453e-02
*DRIVER i_X_DATA\[20\]
*CELL fd4qd1_hd
*C2_R1_C1 7.265e-03 1.275e-02 7.265e-03 
*LOADS
*RC r_x_data_reg_20_:D 1.853e-04
*END

*R_NET i_X_DATA\[19\] 1.453e-02
*DRIVER i_X_DATA\[19\]
*CELL fd4qd1_hd
*C2_R1_C1 7.265e-03 1.275e-02 7.265e-03 
*LOADS
*RC r_x_data_reg_19_:D 1.853e-04
*END

*R_NET i_X_DATA\[18\] 1.453e-02
*DRIVER i_X_DATA\[18\]
*CELL fd4qd1_hd
*C2_R1_C1 7.265e-03 1.275e-02 7.265e-03 
*LOADS
*RC r_x_data_reg_18_:D 1.853e-04
*END

*R_NET i_X_DATA\[17\] 1.453e-02
*DRIVER i_X_DATA\[17\]
*CELL fd4qd1_hd
*C2_R1_C1 7.265e-03 1.275e-02 7.265e-03 
*LOADS
*RC r_x_data_reg_17_:D 1.853e-04
*END

*R_NET i_X_DATA\[16\] 1.453e-02
*DRIVER i_X_DATA\[16\]
*CELL fd4qd1_hd
*C2_R1_C1 7.265e-03 1.275e-02 7.265e-03 
*LOADS
*RC r_x_data_reg_16_:D 1.853e-04
*END

*R_NET i_X_DATA\[15\] 1.453e-02
*DRIVER i_X_DATA\[15\]
*CELL fd4qd1_hd
*C2_R1_C1 7.265e-03 1.275e-02 7.265e-03 
*LOADS
*RC r_x_data_reg_15_:D 1.853e-04
*END

*R_NET i_X_DATA\[14\] 1.453e-02
*DRIVER i_X_DATA\[14\]
*CELL fd4qd1_hd
*C2_R1_C1 7.265e-03 1.275e-02 7.265e-03 
*LOADS
*RC r_x_data_reg_14_:D 1.853e-04
*END

*R_NET i_X_DATA\[13\] 1.453e-02
*DRIVER i_X_DATA\[13\]
*CELL fd4qd1_hd
*C2_R1_C1 7.265e-03 1.275e-02 7.265e-03 
*LOADS
*RC r_x_data_reg_13_:D 1.853e-04
*END

*R_NET i_X_DATA\[12\] 1.453e-02
*DRIVER i_X_DATA\[12\]
*CELL fd4qd1_hd
*C2_R1_C1 7.265e-03 1.275e-02 7.265e-03 
*LOADS
*RC r_x_data_reg_12_:D 1.853e-04
*END

*R_NET i_X_DATA\[11\] 1.453e-02
*DRIVER i_X_DATA\[11\]
*CELL fd4qd1_hd
*C2_R1_C1 7.265e-03 1.275e-02 7.265e-03 
*LOADS
*RC r_x_data_reg_11_:D 1.853e-04
*END

*R_NET i_X_DATA\[10\] 1.453e-02
*DRIVER i_X_DATA\[10\]
*CELL fd4qd1_hd
*C2_R1_C1 7.265e-03 1.275e-02 7.265e-03 
*LOADS
*RC r_x_data_reg_10_:D 1.853e-04
*END

*R_NET i_X_DATA\[9\] 1.453e-02
*DRIVER i_X_DATA\[9\]
*CELL fd4qd1_hd
*C2_R1_C1 7.265e-03 1.275e-02 7.265e-03 
*LOADS
*RC r_x_data_reg_9_:D 1.853e-04
*END

*R_NET i_X_DATA\[8\] 1.453e-02
*DRIVER i_X_DATA\[8\]
*CELL fd4qd1_hd
*C2_R1_C1 7.265e-03 1.275e-02 7.265e-03 
*LOADS
*RC r_x_data_reg_8_:D 1.853e-04
*END

*R_NET i_X_DATA\[7\] 1.453e-02
*DRIVER i_X_DATA\[7\]
*CELL fd4qd1_hd
*C2_R1_C1 7.265e-03 1.275e-02 7.265e-03 
*LOADS
*RC r_x_data_reg_7_:D 1.853e-04
*END

*R_NET i_X_DATA\[6\] 1.453e-02
*DRIVER i_X_DATA\[6\]
*CELL fd4qd1_hd
*C2_R1_C1 7.265e-03 1.275e-02 7.265e-03 
*LOADS
*RC r_x_data_reg_6_:D 1.853e-04
*END

*R_NET i_X_DATA\[5\] 1.453e-02
*DRIVER i_X_DATA\[5\]
*CELL fd4qd1_hd
*C2_R1_C1 7.265e-03 1.275e-02 7.265e-03 
*LOADS
*RC r_x_data_reg_5_:D 1.853e-04
*END

*R_NET i_X_DATA\[4\] 1.453e-02
*DRIVER i_X_DATA\[4\]
*CELL fd4qd1_hd
*C2_R1_C1 7.265e-03 1.275e-02 7.265e-03 
*LOADS
*RC r_x_data_reg_4_:D 1.853e-04
*END

*R_NET i_X_DATA\[3\] 1.453e-02
*DRIVER i_X_DATA\[3\]
*CELL fd4qd1_hd
*C2_R1_C1 7.265e-03 1.275e-02 7.265e-03 
*LOADS
*RC r_x_data_reg_3_:D 1.853e-04
*END

*R_NET i_X_DATA\[2\] 1.453e-02
*DRIVER i_X_DATA\[2\]
*CELL fd4qd1_hd
*C2_R1_C1 7.265e-03 1.275e-02 7.265e-03 
*LOADS
*RC r_x_data_reg_2_:D 1.853e-04
*END

*R_NET i_X_DATA\[1\] 1.453e-02
*DRIVER i_X_DATA\[1\]
*CELL fd4qd1_hd
*C2_R1_C1 7.265e-03 1.275e-02 7.265e-03 
*LOADS
*RC r_x_data_reg_1_:D 1.853e-04
*END

*R_NET i_X_DATA\[0\] 1.453e-02
*DRIVER i_X_DATA\[0\]
*CELL fd4qd1_hd
*C2_R1_C1 7.265e-03 1.275e-02 7.265e-03 
*LOADS
*RC r_x_data_reg_0_:D 1.853e-04
*END

*R_NET o_Y_DATA\[31\] 3.077e-02
*DRIVER o_Y_DATA_reg_31_:Q
*CELL fd2qd1_hd
*C2_R1_C1 1.539e-02 1.469e-02 1.539e-02 
*LOADS
*RC U9:A 4.520e-04
*RC r_y_data_reg_31_:D 4.520e-04
*RC o_Y_DATA\[31\] 4.520e-04
*END

*R_NET o_Y_DATA\[30\] 4.117e-02
*DRIVER o_Y_DATA_reg_30_:Q
*CELL fd2qd1_hd
*C2_R1_C1 2.059e-02 1.924e-02 2.059e-02 
*LOADS
*RC U81:D 7.921e-04
*RC r_y_data_reg_30_:D 7.921e-04
*RC U148:D 7.921e-04
*RC o_Y_DATA\[30\] 7.921e-04
*END

*R_NET o_Y_DATA\[29\] 3.071e-02
*DRIVER o_Y_DATA_reg_29_:Q
*CELL fd2qd1_hd
*C2_R1_C1 1.536e-02 1.469e-02 1.536e-02 
*LOADS
*RC U80:D 4.511e-04
*RC r_y_data_reg_29_:D 4.511e-04
*RC o_Y_DATA\[29\] 4.511e-04
*END

*R_NET o_Y_DATA\[28\] 3.071e-02
*DRIVER o_Y_DATA_reg_28_:Q
*CELL fd2qd1_hd
*C2_R1_C1 1.536e-02 1.469e-02 1.536e-02 
*LOADS
*RC U79:D 4.511e-04
*RC r_y_data_reg_28_:D 4.511e-04
*RC o_Y_DATA\[28\] 4.511e-04
*END

*R_NET o_Y_DATA\[27\] 3.071e-02
*DRIVER o_Y_DATA_reg_27_:Q
*CELL fd2qd1_hd
*C2_R1_C1 1.536e-02 1.469e-02 1.536e-02 
*LOADS
*RC U78:D 4.511e-04
*RC r_y_data_reg_27_:D 4.511e-04
*RC o_Y_DATA\[27\] 4.511e-04
*END

*R_NET o_Y_DATA\[26\] 3.071e-02
*DRIVER o_Y_DATA_reg_26_:Q
*CELL fd2qd1_hd
*C2_R1_C1 1.536e-02 1.469e-02 1.536e-02 
*LOADS
*RC U77:D 4.511e-04
*RC r_y_data_reg_26_:D 4.511e-04
*RC o_Y_DATA\[26\] 4.511e-04
*END

*R_NET o_Y_DATA\[25\] 3.071e-02
*DRIVER o_Y_DATA_reg_25_:Q
*CELL fd2qd1_hd
*C2_R1_C1 1.536e-02 1.469e-02 1.536e-02 
*LOADS
*RC U76:D 4.511e-04
*RC r_y_data_reg_25_:D 4.511e-04
*RC o_Y_DATA\[25\] 4.511e-04
*END

*R_NET o_Y_DATA\[24\] 3.071e-02
*DRIVER o_Y_DATA_reg_24_:Q
*CELL fd2qd1_hd
*C2_R1_C1 1.536e-02 1.469e-02 1.536e-02 
*LOADS
*RC U75:D 4.511e-04
*RC r_y_data_reg_24_:D 4.511e-04
*RC o_Y_DATA\[24\] 4.511e-04
*END

*R_NET o_Y_DATA\[23\] 3.071e-02
*DRIVER o_Y_DATA_reg_23_:Q
*CELL fd2qd1_hd
*C2_R1_C1 1.536e-02 1.469e-02 1.536e-02 
*LOADS
*RC U74:D 4.511e-04
*RC r_y_data_reg_23_:D 4.511e-04
*RC o_Y_DATA\[23\] 4.511e-04
*END

*R_NET o_Y_DATA\[22\] 3.071e-02
*DRIVER o_Y_DATA_reg_22_:Q
*CELL fd2qd1_hd
*C2_R1_C1 1.536e-02 1.469e-02 1.536e-02 
*LOADS
*RC U73:D 4.511e-04
*RC r_y_data_reg_22_:D 4.511e-04
*RC o_Y_DATA\[22\] 4.511e-04
*END

*R_NET o_Y_DATA\[21\] 3.071e-02
*DRIVER o_Y_DATA_reg_21_:Q
*CELL fd2qd1_hd
*C2_R1_C1 1.536e-02 1.469e-02 1.536e-02 
*LOADS
*RC U72:D 4.511e-04
*RC r_y_data_reg_21_:D 4.511e-04
*RC o_Y_DATA\[21\] 4.511e-04
*END

*R_NET o_Y_DATA\[20\] 3.071e-02
*DRIVER o_Y_DATA_reg_20_:Q
*CELL fd2qd1_hd
*C2_R1_C1 1.536e-02 1.469e-02 1.536e-02 
*LOADS
*RC U71:D 4.511e-04
*RC r_y_data_reg_20_:D 4.511e-04
*RC o_Y_DATA\[20\] 4.511e-04
*END

*R_NET o_Y_DATA\[19\] 3.071e-02
*DRIVER o_Y_DATA_reg_19_:Q
*CELL fd2qd1_hd
*C2_R1_C1 1.536e-02 1.469e-02 1.536e-02 
*LOADS
*RC U70:D 4.511e-04
*RC r_y_data_reg_19_:D 4.511e-04
*RC o_Y_DATA\[19\] 4.511e-04
*END

*R_NET o_Y_DATA\[18\] 3.071e-02
*DRIVER o_Y_DATA_reg_18_:Q
*CELL fd2qd1_hd
*C2_R1_C1 1.536e-02 1.469e-02 1.536e-02 
*LOADS
*RC U69:D 4.511e-04
*RC r_y_data_reg_18_:D 4.511e-04
*RC o_Y_DATA\[18\] 4.511e-04
*END

*R_NET o_Y_DATA\[17\] 3.071e-02
*DRIVER o_Y_DATA_reg_17_:Q
*CELL fd2qd1_hd
*C2_R1_C1 1.536e-02 1.469e-02 1.536e-02 
*LOADS
*RC U68:D 4.511e-04
*RC r_y_data_reg_17_:D 4.511e-04
*RC o_Y_DATA\[17\] 4.511e-04
*END

*R_NET o_Y_DATA\[16\] 3.071e-02
*DRIVER o_Y_DATA_reg_16_:Q
*CELL fd2qd1_hd
*C2_R1_C1 1.536e-02 1.469e-02 1.536e-02 
*LOADS
*RC U67:D 4.511e-04
*RC r_y_data_reg_16_:D 4.511e-04
*RC o_Y_DATA\[16\] 4.511e-04
*END

*R_NET o_Y_DATA\[15\] 3.071e-02
*DRIVER o_Y_DATA_reg_15_:Q
*CELL fd2qd1_hd
*C2_R1_C1 1.536e-02 1.469e-02 1.536e-02 
*LOADS
*RC U66:D 4.511e-04
*RC r_y_data_reg_15_:D 4.511e-04
*RC o_Y_DATA\[15\] 4.511e-04
*END

*R_NET o_Y_DATA\[14\] 3.071e-02
*DRIVER o_Y_DATA_reg_14_:Q
*CELL fd2qd1_hd
*C2_R1_C1 1.536e-02 1.469e-02 1.536e-02 
*LOADS
*RC U65:D 4.511e-04
*RC r_y_data_reg_14_:D 4.511e-04
*RC o_Y_DATA\[14\] 4.511e-04
*END

*R_NET o_Y_DATA\[13\] 3.071e-02
*DRIVER o_Y_DATA_reg_13_:Q
*CELL fd2qd1_hd
*C2_R1_C1 1.536e-02 1.469e-02 1.536e-02 
*LOADS
*RC U64:D 4.511e-04
*RC r_y_data_reg_13_:D 4.511e-04
*RC o_Y_DATA\[13\] 4.511e-04
*END

*R_NET o_Y_DATA\[12\] 3.071e-02
*DRIVER o_Y_DATA_reg_12_:Q
*CELL fd2qd1_hd
*C2_R1_C1 1.536e-02 1.469e-02 1.536e-02 
*LOADS
*RC U63:D 4.511e-04
*RC r_y_data_reg_12_:D 4.511e-04
*RC o_Y_DATA\[12\] 4.511e-04
*END

*R_NET o_Y_DATA\[11\] 3.071e-02
*DRIVER o_Y_DATA_reg_11_:Q
*CELL fd2qd1_hd
*C2_R1_C1 1.536e-02 1.469e-02 1.536e-02 
*LOADS
*RC U62:D 4.511e-04
*RC r_y_data_reg_11_:D 4.511e-04
*RC o_Y_DATA\[11\] 4.511e-04
*END

*R_NET o_Y_DATA\[10\] 3.071e-02
*DRIVER o_Y_DATA_reg_10_:Q
*CELL fd2qd1_hd
*C2_R1_C1 1.536e-02 1.469e-02 1.536e-02 
*LOADS
*RC U61:D 4.511e-04
*RC r_y_data_reg_10_:D 4.511e-04
*RC o_Y_DATA\[10\] 4.511e-04
*END

*R_NET o_Y_DATA\[9\] 3.071e-02
*DRIVER o_Y_DATA_reg_9_:Q
*CELL fd2qd1_hd
*C2_R1_C1 1.536e-02 1.469e-02 1.536e-02 
*LOADS
*RC U60:D 4.511e-04
*RC r_y_data_reg_9_:D 4.511e-04
*RC o_Y_DATA\[9\] 4.511e-04
*END

*R_NET o_Y_DATA\[8\] 3.071e-02
*DRIVER o_Y_DATA_reg_8_:Q
*CELL fd2qd1_hd
*C2_R1_C1 1.536e-02 1.469e-02 1.536e-02 
*LOADS
*RC U59:D 4.511e-04
*RC r_y_data_reg_8_:D 4.511e-04
*RC o_Y_DATA\[8\] 4.511e-04
*END

*R_NET o_Y_DATA\[7\] 3.071e-02
*DRIVER o_Y_DATA_reg_7_:Q
*CELL fd2qd1_hd
*C2_R1_C1 1.536e-02 1.469e-02 1.536e-02 
*LOADS
*RC U58:D 4.511e-04
*RC r_y_data_reg_7_:D 4.511e-04
*RC o_Y_DATA\[7\] 4.511e-04
*END

*R_NET o_Y_DATA\[6\] 3.071e-02
*DRIVER o_Y_DATA_reg_6_:Q
*CELL fd2qd1_hd
*C2_R1_C1 1.536e-02 1.469e-02 1.536e-02 
*LOADS
*RC U57:D 4.511e-04
*RC r_y_data_reg_6_:D 4.511e-04
*RC o_Y_DATA\[6\] 4.511e-04
*END

*R_NET o_Y_DATA\[5\] 3.071e-02
*DRIVER o_Y_DATA_reg_5_:Q
*CELL fd2qd1_hd
*C2_R1_C1 1.536e-02 1.469e-02 1.536e-02 
*LOADS
*RC U56:D 4.511e-04
*RC r_y_data_reg_5_:D 4.511e-04
*RC o_Y_DATA\[5\] 4.511e-04
*END

*R_NET o_Y_DATA\[4\] 3.071e-02
*DRIVER o_Y_DATA_reg_4_:Q
*CELL fd2qd1_hd
*C2_R1_C1 1.536e-02 1.469e-02 1.536e-02 
*LOADS
*RC U55:D 4.511e-04
*RC r_y_data_reg_4_:D 4.511e-04
*RC o_Y_DATA\[4\] 4.511e-04
*END

*R_NET o_Y_DATA\[3\] 3.071e-02
*DRIVER o_Y_DATA_reg_3_:Q
*CELL fd2qd1_hd
*C2_R1_C1 1.536e-02 1.469e-02 1.536e-02 
*LOADS
*RC U54:D 4.511e-04
*RC r_y_data_reg_3_:D 4.511e-04
*RC o_Y_DATA\[3\] 4.511e-04
*END

*R_NET o_Y_DATA\[2\] 3.071e-02
*DRIVER o_Y_DATA_reg_2_:Q
*CELL fd2qd1_hd
*C2_R1_C1 1.536e-02 1.469e-02 1.536e-02 
*LOADS
*RC U53:D 4.511e-04
*RC r_y_data_reg_2_:D 4.511e-04
*RC o_Y_DATA\[2\] 4.511e-04
*END

*R_NET o_Y_DATA\[1\] 3.071e-02
*DRIVER o_Y_DATA_reg_1_:Q
*CELL fd2qd1_hd
*C2_R1_C1 1.536e-02 1.469e-02 1.536e-02 
*LOADS
*RC U52:D 4.511e-04
*RC r_y_data_reg_1_:D 4.511e-04
*RC o_Y_DATA\[1\] 4.511e-04
*END

*R_NET o_Y_DATA\[0\] 3.071e-02
*DRIVER o_Y_DATA_reg_0_:Q
*CELL fd2qd1_hd
*C2_R1_C1 1.536e-02 1.469e-02 1.536e-02 
*LOADS
*RC U51:D 4.511e-04
*RC r_y_data_reg_0_:D 4.511e-04
*RC o_Y_DATA\[0\] 4.511e-04
*END

*R_NET i_X_DATA_VALID 2.270e-02
*DRIVER i_X_DATA_VALID
*CELL fd4qd1_hd
*C2_R1_C1 1.135e-02 1.469e-02 1.135e-02 
*LOADS
*RC U136:A 3.335e-04
*RC U1052:A 3.335e-04
*END

*R_NET i_Y_ACK 1.504e-02
*DRIVER i_Y_ACK
*CELL fd4qd1_hd
*C2_R1_C1 7.520e-03 1.275e-02 7.520e-03 
*LOADS
*RC U1051:B 1.918e-04
*END

*R_NET i_CLK 9.176e-02
*DRIVER i_CLK
*CELL NULL
*C2_R1_C1 4.588e-02 0.000e+00 4.588e-02 
*LOADS
*RC clk_gate_r_y_data_reg_31__0/latch:CK 0.000e+00
*RC clk_gate_r_add_B_reg_30__0/latch:CK 0.000e+00
*RC clk_gate_r_mult_A_reg_29__0/latch:CK 0.000e+00
*RC clk_gate_o_Y_DATA_reg_31__0/latch:CK 0.000e+00
*RC mult/clk_gate_clk_r_REG0_S1_0/latch:CK 0.000e+00
*RC mult/clk_gate_clk_r_REG8_S4_0/latch:CK 0.000e+00
*RC mult/clk_gate_clk_r_REG7_S3_0/latch:CK 0.000e+00
*RC mult/clk_gate_clk_r_REG159_S6_0/latch:CK 0.000e+00
*RC mult/clk_gate_clk_r_REG188_S4_0/latch:CK 0.000e+00
*RC mult/clk_gate_clk_r_REG169_S4_0/latch:CK 0.000e+00
*RC mult/clk_gate_clk_r_REG131_S31_0/latch:CK 0.000e+00
*RC mult/clk_gate_clk_r_REG97_S5_0/latch:CK 0.000e+00
*RC mult/clk_gate_clk_r_REG98_S4_0/latch:CK 0.000e+00
*RC add/clk_gate_clk_r_REG247_S1/latch:CK 0.000e+00
*RC add/clk_gate_clk_r_REG22_S21_0/latch:CK 0.000e+00
*RC add/clk_gate_clk_r_REG21_S22_0/latch:CK 0.000e+00
*RC add/clk_gate_clk_r_REG110_S3_0/latch:CK 0.000e+00
*RC add/clk_gate_clk_r_REG123_S2_0/latch:CK 0.000e+00
*RC add/clk_gate_clk_r_REG142_S5_0/latch:CK 0.000e+00
*RC add/clk_gate_clk_r_REG75_S11_0/latch:CK 0.000e+00
*RC add/clk_gate_clk_r_REG182_S5_0/latch:CK 0.000e+00
*RC add/clk_gate_clk_r_REG212_S5/latch:CK 0.000e+00
*RC add/clk_gate_clk_r_REG213_S5/latch:CK 0.000e+00
*RC add/clk_gate_clk_r_REG74_S10_0/latch:CK 0.000e+00
*RC mult/clk_r_REG201_S4:CK 0.000e+00
*RC mult/clk_r_REG266_S1:CK 0.000e+00
*RC mult/clk_r_REG265_S1:CK 0.000e+00
*RC mult/clk_r_REG203_S4:CK 0.000e+00
*RC mult/clk_r_REG202_S4:CK 0.000e+00
*RC mult/clk_r_REG9_S3:CK 0.000e+00
*RC add/clk_r_REG279_S1:CK 0.000e+00
*RC add/clk_r_REG278_S1:CK 0.000e+00
*RC add/clk_r_REG214_S5:CK 0.000e+00
*RC add/clk_r_REG124_S3:CK 0.000e+00
*RC add/clk_r_REG125_S3:CK 0.000e+00
*RC add/clk_r_REG135_S4:CK 0.000e+00
*RC add/clk_r_REG136_S4:CK 0.000e+00
*RC async_rst_synchronizer/r_ff_reg:CK 0.000e+00
*RC async_rst_synchronizer/o_RST_reg:CK 0.000e+00
*RC o_Y_DATA_VALID_reg:CK 0.000e+00
*RC r_counter_reg_0_:CK 0.000e+00
*RC r_add_Z_ACK_reg:CK 0.000e+00
*RC r_mult_Z_ACK_reg:CK 0.000e+00
*RC r_add_AB_STB_reg:CK 0.000e+00
*RC r_mult_AB_STB_reg:CK 0.000e+00
*RC r_pstate_reg_1_:CK 0.000e+00
*RC r_pstate_reg_0_:CK 0.000e+00
*RC r_counter_reg_1_:CK 0.000e+00
*RC o_X_DATA_READY_reg:CK 0.000e+00
*RC async_rstn_synchronizer/r_ff_reg:CK 0.000e+00
*RC async_rstn_synchronizer/o_RSTN_reg:CK 0.000e+00
*END

*R_NET o_X_DATA_READY 3.900e-02
*DRIVER o_X_DATA_READY_reg:Q
*CELL fd1eqd1_hd
*C2_R1_C1 1.950e-02 1.924e-02 1.950e-02 
*LOADS
*RC U136:B 7.504e-04
*RC U1052:B 7.504e-04
*RC o_X_DATA_READY 7.504e-04
*END

*R_NET o_Y_DATA_VALID 3.932e-02
*DRIVER o_Y_DATA_VALID_reg:Q
*CELL fd2qd1_hd
*C2_R1_C1 1.966e-02 1.924e-02 1.966e-02 
*LOADS
*RC U7:D0 7.565e-04
*RC U1051:A 7.565e-04
*RC o_Y_DATA_VALID 7.565e-04
*END

*R_NET w_rstn 1.973e-02
*DRIVER async_rstn_synchronizer/o_RSTN_reg:Q
*CELL fd2qd1_hd
*C2_R1_C1 9.865e-03 1.366e-02 9.865e-03 
*LOADS
*RC U782:B 2.695e-04
*RC U419:A 2.695e-04
*RC U420:A 2.695e-04
*END

*R_NET w_rst 7.874e-02
*DRIVER async_rst_synchronizer/o_RST_reg:Q
*CELL fd3qd1_hd
*C2_R1_C1 3.937e-02 2.601e-02 3.937e-02 
*LOADS
*RC add/U6:A 2.048e-03
*RC add/U5:A 2.048e-03
*RC add/U4:A 2.048e-03
*RC add/U3:A 2.048e-03
*RC add/U2:A 2.048e-03
*RC add/U1:A 2.048e-03
*RC add/U31:A 2.048e-03
*RC add/U30:A 2.048e-03
*RC add/U29:A 2.048e-03
*RC add/U28:A 2.048e-03
*RC add/U27:A 2.048e-03
*RC add/U26:A 2.048e-03
*RC U128:A 2.048e-03
*END

*R_NET r_add_AB_STB 1.392e-02
*DRIVER r_add_AB_STB_reg:Q
*CELL fd2qd1_hd
*C2_R1_C1 6.960e-03 1.157e-02 6.960e-03 
*LOADS
*RC U118:D0 1.611e-04
*RC add/U489:A 1.611e-04
*END

*R_NET w_add_AB_ACK 1.405e-02
*DRIVER add/clk_r_REG278_S1:Q
*CELL fd1eqd1_hd
*C2_R1_C1 7.025e-03 1.157e-02 7.025e-03 
*LOADS
*RC add/U489:B 1.626e-04
*RC U484:B 1.626e-04
*END

*R_NET w_add_Z_STB 3.168e-02
*DRIVER add/clk_r_REG279_S1:Q
*CELL fd1eqd1_hd
*C2_R1_C1 1.584e-02 1.824e-02 1.584e-02 
*LOADS
*RC add/U329:B 5.778e-04
*RC U476:B 5.778e-04
*RC U467:A 5.778e-04
*RC U130:D 5.778e-04
*END

*R_NET r_add_Z_ACK 1.392e-02
*DRIVER r_add_Z_ACK_reg:Q
*CELL fd2qd1_hd
*C2_R1_C1 6.960e-03 1.157e-02 6.960e-03 
*LOADS
*RC U11:D0 1.611e-04
*RC add/U329:A 1.611e-04
*END

*R_NET r_mult_AB_STB 1.392e-02
*DRIVER r_mult_AB_STB_reg:Q
*CELL fd2qd1_hd
*C2_R1_C1 6.960e-03 1.157e-02 6.960e-03 
*LOADS
*RC U119:D0 1.611e-04
*RC mult/U248:A 1.611e-04
*END

*R_NET w_mult_AB_ACK 1.406e-02
*DRIVER mult/clk_r_REG265_S1:Q
*CELL fd1eqd1_hd
*C2_R1_C1 7.030e-03 1.157e-02 7.030e-03 
*LOADS
*RC mult/U248:B 1.627e-04
*RC U484:A 1.627e-04
*END

*R_NET w_mult_Z_STB 3.116e-02
*DRIVER mult/clk_r_REG266_S1:Q
*CELL fd1eqd1_hd
*C2_R1_C1 1.558e-02 1.824e-02 1.558e-02 
*LOADS
*RC mult/U247:B 5.684e-04
*RC U777:A 5.684e-04
*RC U468:A 5.684e-04
*RC U467:B 5.684e-04
*END

*R_NET r_mult_Z_ACK 1.392e-02
*DRIVER r_mult_Z_ACK_reg:Q
*CELL fd2qd1_hd
*C2_R1_C1 6.960e-03 1.157e-02 6.960e-03 
*LOADS
*RC U12:D0 1.611e-04
*RC mult/U247:A 1.611e-04
*END

*R_NET N25 1.973e-02
*DRIVER U138:Y
*CELL ivd1_hd
*C2_R1_C1 9.865e-03 1.366e-02 9.865e-03 
*LOADS
*RC U127:A 2.695e-04
*RC U140:D 2.695e-04
*RC U489:A 2.695e-04
*END

*R_NET N26 3.274e-02
*DRIVER U134:Y
*CELL ivd1_hd
*C2_R1_C1 1.637e-02 1.824e-02 1.637e-02 
*LOADS
*RC U140:B 5.972e-04
*RC U139:B 5.972e-04
*RC U489:B 5.972e-04
*RC U480:B 5.972e-04
*END

*R_NET N27 1.934e-02
*DRIVER U489:Y
*CELL ad2d1_hd
*C2_R1_C1 9.670e-03 1.366e-02 9.670e-03 
*LOADS
*RC U1056:A 2.642e-04
*RC U782:A 2.642e-04
*RC U768:A 2.642e-04
*END

*R_NET N28 5.068e-02
*DRIVER U480:Y
*CELL or2d1_hd
*C2_R1_C1 2.534e-02 2.097e-02 2.534e-02 
*LOADS
*RC U4:S 1.063e-03
*RC U5:C 1.063e-03
*RC U485:A 1.063e-03
*RC U178:B 1.063e-03
*RC U144:B 1.063e-03
*RC U123:B 1.063e-03
*END

*R_NET N37 3.103e-02
*DRIVER U1:Y
*CELL ivd1_hd
*C2_R1_C1 1.551e-02 1.824e-02 1.551e-02 
*LOADS
*RC U1045:A 5.660e-04
*RC U478:A 5.660e-04
*RC U477:A 5.660e-04
*RC U466:A 5.660e-04
*END

*R_NET N38 3.157e-02
*DRIVER U463:Y
*CELL ivd1_hd
*C2_R1_C1 1.579e-02 1.824e-02 1.579e-02 
*LOADS
*RC U1046:B 5.758e-04
*RC U479:B 5.758e-04
*RC U478:B 5.758e-04
*RC U466:B 5.758e-04
*END

*R_NET N39 3.795e-02
*DRIVER U478:Y
*CELL ad2d1_hd
*C2_R1_C1 1.897e-02 1.956e-02 1.897e-02 
*LOADS
*RC U775:A 7.423e-04
*RC U773:A 7.423e-04
*RC U481:A 7.423e-04
*RC U469:B 7.423e-04
*RC U297:B 7.423e-04
*END

*R_NET N48 5.220e-03
*DRIVER U481:Y
*CELL or3d1_hd
*C2_R1_C1 2.610e-03 7.940e-03 2.610e-03 
*LOADS
*RC U135:B 4.145e-05
*END

*R_NET N49 5.430e-03
*DRIVER U773:Y
*CELL or2d1_hd
*C2_R1_C1 2.715e-03 7.940e-03 2.715e-03 
*LOADS
*RC U144:AN 4.311e-05
*END

*R_NET N114 5.430e-03
*DRIVER U775:Y
*CELL or2d1_hd
*C2_R1_C1 2.715e-03 7.940e-03 2.715e-03 
*LOADS
*RC U178:AN 4.311e-05
*END

*R_NET N311 2.068e-02
*DRIVER U466:Y
*CELL ad2d1_hd
*C2_R1_C1 1.034e-02 1.366e-02 1.034e-02 
*LOADS
*RC U482:B 2.825e-04
*RC U465:B 2.825e-04
*RC U130:A 2.825e-04
*END

*R_NET N317 1.469e-02
*DRIVER U467:Y
*CELL ad2d1_hd
*C2_R1_C1 7.345e-03 1.157e-02 7.345e-03 
*LOADS
*RC U1053:A 1.700e-04
*RC U130:B 1.700e-04
*END

*R_NET N319 5.430e-03
*DRIVER U780:Y
*CELL xo2d1_hd
*C2_R1_C1 2.715e-03 7.940e-03 2.715e-03 
*LOADS
*RC U300:AN 4.311e-05
*END

*R_NET N320 1.499e-02
*DRIVER U1053:Y
*CELL ivd1_hd
*C2_R1_C1 7.495e-03 1.157e-02 7.495e-03 
*LOADS
*RC U143:A 1.734e-04
*RC U124:B 1.734e-04
*END

*R_NET N322 6.340e-03
*DRIVER U777:Y
*CELL ivd1_hd
*C2_R1_C1 3.170e-03 7.940e-03 3.170e-03 
*LOADS
*RC U124:C 5.034e-05
*END

*R_NET N371 1.466e-02
*DRIVER U306:Y
*CELL ad2d1_hd
*C2_R1_C1 7.330e-03 1.157e-02 7.330e-03 
*LOADS
*RC U7:D1 1.696e-04
*RC U122:D 1.696e-04
*END

*R_NET N374 5.600e-03
*DRIVER U301:Y
*CELL nr2d1_hd
*C2_R1_C1 2.800e-03 7.940e-03 2.800e-03 
*LOADS
*RC U8:D1 4.446e-05
*END

*R_NET N376 5.600e-03
*DRIVER U300:Y
*CELL nr2bd1_hd
*C2_R1_C1 2.800e-03 7.940e-03 2.800e-03 
*LOADS
*RC U779:D1 4.446e-05
*END

*R_NET N511 5.600e-03
*DRIVER U178:Y
*CELL nr2bd1_hd
*C2_R1_C1 2.800e-03 7.940e-03 2.800e-03 
*LOADS
*RC U119:D1 4.446e-05
*END

*R_NET N513 5.190e-03
*DRIVER U704:Y
*CELL scg2d1_hd
*C2_R1_C1 2.595e-03 7.940e-03 2.595e-03 
*LOADS
*RC o_Y_DATA_reg_0_:D 4.121e-05
*END

*R_NET N514 5.190e-03
*DRIVER U706:Y
*CELL scg2d1_hd
*C2_R1_C1 2.595e-03 7.940e-03 2.595e-03 
*LOADS
*RC o_Y_DATA_reg_1_:D 4.121e-05
*END

*R_NET N515 5.190e-03
*DRIVER U708:Y
*CELL scg2d1_hd
*C2_R1_C1 2.595e-03 7.940e-03 2.595e-03 
*LOADS
*RC o_Y_DATA_reg_2_:D 4.121e-05
*END

*R_NET N516 5.190e-03
*DRIVER U710:Y
*CELL scg2d1_hd
*C2_R1_C1 2.595e-03 7.940e-03 2.595e-03 
*LOADS
*RC o_Y_DATA_reg_3_:D 4.121e-05
*END

*R_NET N517 5.190e-03
*DRIVER U712:Y
*CELL scg2d1_hd
*C2_R1_C1 2.595e-03 7.940e-03 2.595e-03 
*LOADS
*RC o_Y_DATA_reg_4_:D 4.121e-05
*END

*R_NET N518 5.190e-03
*DRIVER U714:Y
*CELL scg2d1_hd
*C2_R1_C1 2.595e-03 7.940e-03 2.595e-03 
*LOADS
*RC o_Y_DATA_reg_5_:D 4.121e-05
*END

*R_NET N519 5.190e-03
*DRIVER U716:Y
*CELL scg2d1_hd
*C2_R1_C1 2.595e-03 7.940e-03 2.595e-03 
*LOADS
*RC o_Y_DATA_reg_6_:D 4.121e-05
*END

*R_NET N520 5.190e-03
*DRIVER U718:Y
*CELL scg2d1_hd
*C2_R1_C1 2.595e-03 7.940e-03 2.595e-03 
*LOADS
*RC o_Y_DATA_reg_7_:D 4.121e-05
*END

*R_NET N521 5.190e-03
*DRIVER U720:Y
*CELL scg2d1_hd
*C2_R1_C1 2.595e-03 7.940e-03 2.595e-03 
*LOADS
*RC o_Y_DATA_reg_8_:D 4.121e-05
*END

*R_NET N522 5.190e-03
*DRIVER U722:Y
*CELL scg2d1_hd
*C2_R1_C1 2.595e-03 7.940e-03 2.595e-03 
*LOADS
*RC o_Y_DATA_reg_9_:D 4.121e-05
*END

*R_NET N523 5.190e-03
*DRIVER U724:Y
*CELL scg2d1_hd
*C2_R1_C1 2.595e-03 7.940e-03 2.595e-03 
*LOADS
*RC o_Y_DATA_reg_10_:D 4.121e-05
*END

*R_NET N524 5.190e-03
*DRIVER U726:Y
*CELL scg2d1_hd
*C2_R1_C1 2.595e-03 7.940e-03 2.595e-03 
*LOADS
*RC o_Y_DATA_reg_11_:D 4.121e-05
*END

*R_NET N525 5.190e-03
*DRIVER U728:Y
*CELL scg2d1_hd
*C2_R1_C1 2.595e-03 7.940e-03 2.595e-03 
*LOADS
*RC o_Y_DATA_reg_12_:D 4.121e-05
*END

*R_NET N526 5.190e-03
*DRIVER U730:Y
*CELL scg2d1_hd
*C2_R1_C1 2.595e-03 7.940e-03 2.595e-03 
*LOADS
*RC o_Y_DATA_reg_13_:D 4.121e-05
*END

*R_NET N527 5.190e-03
*DRIVER U732:Y
*CELL scg2d1_hd
*C2_R1_C1 2.595e-03 7.940e-03 2.595e-03 
*LOADS
*RC o_Y_DATA_reg_14_:D 4.121e-05
*END

*R_NET N528 5.190e-03
*DRIVER U734:Y
*CELL scg2d1_hd
*C2_R1_C1 2.595e-03 7.940e-03 2.595e-03 
*LOADS
*RC o_Y_DATA_reg_15_:D 4.121e-05
*END

*R_NET N529 5.190e-03
*DRIVER U736:Y
*CELL scg2d1_hd
*C2_R1_C1 2.595e-03 7.940e-03 2.595e-03 
*LOADS
*RC o_Y_DATA_reg_16_:D 4.121e-05
*END

*R_NET N530 5.190e-03
*DRIVER U738:Y
*CELL scg2d1_hd
*C2_R1_C1 2.595e-03 7.940e-03 2.595e-03 
*LOADS
*RC o_Y_DATA_reg_17_:D 4.121e-05
*END

*R_NET N531 5.190e-03
*DRIVER U740:Y
*CELL scg2d1_hd
*C2_R1_C1 2.595e-03 7.940e-03 2.595e-03 
*LOADS
*RC o_Y_DATA_reg_18_:D 4.121e-05
*END

*R_NET N532 5.190e-03
*DRIVER U742:Y
*CELL scg2d1_hd
*C2_R1_C1 2.595e-03 7.940e-03 2.595e-03 
*LOADS
*RC o_Y_DATA_reg_19_:D 4.121e-05
*END

*R_NET N533 5.190e-03
*DRIVER U744:Y
*CELL scg2d1_hd
*C2_R1_C1 2.595e-03 7.940e-03 2.595e-03 
*LOADS
*RC o_Y_DATA_reg_20_:D 4.121e-05
*END

*R_NET N534 5.190e-03
*DRIVER U746:Y
*CELL scg2d1_hd
*C2_R1_C1 2.595e-03 7.940e-03 2.595e-03 
*LOADS
*RC o_Y_DATA_reg_21_:D 4.121e-05
*END

*R_NET N535 5.190e-03
*DRIVER U748:Y
*CELL scg2d1_hd
*C2_R1_C1 2.595e-03 7.940e-03 2.595e-03 
*LOADS
*RC o_Y_DATA_reg_22_:D 4.121e-05
*END

*R_NET N536 5.190e-03
*DRIVER U750:Y
*CELL scg2d1_hd
*C2_R1_C1 2.595e-03 7.940e-03 2.595e-03 
*LOADS
*RC o_Y_DATA_reg_23_:D 4.121e-05
*END

*R_NET N537 5.190e-03
*DRIVER U752:Y
*CELL scg2d1_hd
*C2_R1_C1 2.595e-03 7.940e-03 2.595e-03 
*LOADS
*RC o_Y_DATA_reg_24_:D 4.121e-05
*END

*R_NET N538 5.190e-03
*DRIVER U754:Y
*CELL scg2d1_hd
*C2_R1_C1 2.595e-03 7.940e-03 2.595e-03 
*LOADS
*RC o_Y_DATA_reg_25_:D 4.121e-05
*END

*R_NET N539 5.190e-03
*DRIVER U756:Y
*CELL scg2d1_hd
*C2_R1_C1 2.595e-03 7.940e-03 2.595e-03 
*LOADS
*RC o_Y_DATA_reg_26_:D 4.121e-05
*END

*R_NET N540 5.190e-03
*DRIVER U758:Y
*CELL scg2d1_hd
*C2_R1_C1 2.595e-03 7.940e-03 2.595e-03 
*LOADS
*RC o_Y_DATA_reg_27_:D 4.121e-05
*END

*R_NET N541 5.190e-03
*DRIVER U760:Y
*CELL scg2d1_hd
*C2_R1_C1 2.595e-03 7.940e-03 2.595e-03 
*LOADS
*RC o_Y_DATA_reg_28_:D 4.121e-05
*END

*R_NET N542 5.190e-03
*DRIVER U762:Y
*CELL scg2d1_hd
*C2_R1_C1 2.595e-03 7.940e-03 2.595e-03 
*LOADS
*RC o_Y_DATA_reg_29_:D 4.121e-05
*END

*R_NET N543 5.190e-03
*DRIVER U764:Y
*CELL scg2d1_hd
*C2_R1_C1 2.595e-03 7.940e-03 2.595e-03 
*LOADS
*RC o_Y_DATA_reg_30_:D 4.121e-05
*END

*R_NET N544 5.190e-03
*DRIVER U766:Y
*CELL scg2d1_hd
*C2_R1_C1 2.595e-03 7.940e-03 2.595e-03 
*LOADS
*RC o_Y_DATA_reg_31_:D 4.121e-05
*END

*R_NET N546 5.600e-03
*DRIVER U144:Y
*CELL nr2bd1_hd
*C2_R1_C1 2.800e-03 7.940e-03 2.800e-03 
*LOADS
*RC U118:D1 4.446e-05
*END

*R_NET N548 1.643e-02
*DRIVER U135:Y
*CELL scg22d1_hd
*C2_R1_C1 8.215e-03 1.157e-02 8.215e-03 
*LOADS
*RC U118:S 1.901e-04
*RC U119:S 1.901e-04
*END

*R_NET N550 6.890e-03
*DRIVER U768:Y
*CELL or2d1_hd
*C2_R1_C1 3.445e-03 7.940e-03 3.445e-03 
*LOADS
*RC U7:S 5.471e-05
*END

*R_NET N552 1.643e-02
*DRIVER U488:Y
*CELL clknd2d1_hd
*C2_R1_C1 8.215e-03 1.157e-02 8.215e-03 
*LOADS
*RC U8:S 1.901e-04
*RC U779:S 1.901e-04
*END

*R_NET N554 5.190e-03
*DRIVER U776:Y
*CELL clknd2d1_hd
*C2_R1_C1 2.595e-03 7.940e-03 2.595e-03 
*LOADS
*RC r_pstate_reg_1_:D 4.121e-05
*END

*R_NET N556 5.700e-03
*DRIVER U137:Y
*CELL ivd1_hd
*C2_R1_C1 2.850e-03 7.940e-03 2.850e-03 
*LOADS
*RC U116:B 4.526e-05
*END

*R_NET N557 6.890e-03
*DRIVER U116:Y
*CELL or2d1_hd
*C2_R1_C1 3.445e-03 7.940e-03 3.445e-03 
*LOADS
*RC U12:S 5.471e-05
*END

*R_NET N558 6.890e-03
*DRIVER U771:Y
*CELL clknd2d1_hd
*C2_R1_C1 3.445e-03 7.940e-03 3.445e-03 
*LOADS