*SPEF "IEEE 1481-1999"
*DESIGN "iir_hpf"
*DATE "Tue Jun  9 05:57:46 2020"
*VENDOR "SYNOPSYS INC"
*PROGRAM "Synopsys Design Compiler cmos"
*VERSION "F-2011.09-SP5-3"
*DESIGN_FLOW "SYNTHESIS"
*DIVIDER /
*DELIMITER :
*BUS_DELIMITER []
*T_UNIT 1.0 NS
*C_UNIT 1.0 PF
*R_UNIT 1.0 KOHM
*L_UNIT 1.0 HENRY

*PORTS

i_X_DATA\[31\] I *L 1.900e-03 *S 1.462e-01 1.662e-01 *D fd4qd1_hd 
i_X_DATA\[30\] I *L 1.900e-03 *S 1.462e-01 1.662e-01 *D fd4qd1_hd 
i_X_DATA\[29\] I *L 1.900e-03 *S 1.462e-01 1.662e-01 *D fd4qd1_hd 
i_X_DATA\[28\] I *L 1.900e-03 *S 1.462e-01 1.662e-01 *D fd4qd1_hd 
i_X_DATA\[27\] I *L 1.900e-03 *S 1.462e-01 1.662e-01 *D fd4qd1_hd 
i_X_DATA\[26\] I *L 1.900e-03 *S 1.462e-01 1.662e-01 *D fd4qd1_hd 
i_X_DATA\[25\] I *L 1.900e-03 *S 1.462e-01 1.662e-01 *D fd4qd1_hd 
i_X_DATA\[24\] I *L 1.900e-03 *S 1.462e-01 1.662e-01 *D fd4qd1_hd 
i_X_DATA\[23\] I *L 1.900e-03 *S 1.462e-01 1.662e-01 *D fd4qd1_hd 
i_X_DATA\[22\] I *L 1.900e-03 *S 1.462e-01 1.662e-01 *D fd4qd1_hd 
i_X_DATA\[21\] I *L 1.900e-03 *S 1.462e-01 1.662e-01 *D fd4qd1_hd 
i_X_DATA\[20\] I *L 1.900e-03 *S 1.462e-01 1.662e-01 *D fd4qd1_hd 
i_X_DATA\[19\] I *L 1.900e-03 *S 1.462e-01 1.662e-01 *D fd4qd1_hd 
i_X_DATA\[18\] I *L 1.900e-03 *S 1.462e-01 1.662e-01 *D fd4qd1_hd 
i_X_DATA\[17\] I *L 1.900e-03 *S 1.462e-01 1.662e-01 *D fd4qd1_hd 
i_X_DATA\[16\] I *L 1.900e-03 *S 1.462e-01 1.662e-01 *D fd4qd1_hd 
i_X_DATA\[15\] I *L 1.900e-03 *S 1.462e-01 1.662e-01 *D fd4qd1_hd 
i_X_DATA\[14\] I *L 1.900e-03 *S 1.462e-01 1.662e-01 *D fd4qd1_hd 
i_X_DATA\[13\] I *L 1.900e-03 *S 1.462e-01 1.662e-01 *D fd4qd1_hd 
i_X_DATA\[12\] I *L 1.900e-03 *S 1.462e-01 1.662e-01 *D fd4qd1_hd 
i_X_DATA\[11\] I *L 1.900e-03 *S 1.462e-01 1.662e-01 *D fd4qd1_hd 
i_X_DATA\[10\] I *L 1.900e-03 *S 1.462e-01 1.662e-01 *D fd4qd1_hd 
i_X_DATA\[9\] I *L 1.900e-03 *S 1.462e-01 1.662e-01 *D fd4qd1_hd 
i_X_DATA\[8\] I *L 1.900e-03 *S 1.462e-01 1.662e-01 *D fd4qd1_hd 
i_X_DATA\[7\] I *L 1.900e-03 *S 1.462e-01 1.662e-01 *D fd4qd1_hd 
i_X_DATA\[6\] I *L 1.900e-03 *S 1.462e-01 1.662e-01 *D fd4qd1_hd 
i_X_DATA\[5\] I *L 1.900e-03 *S 1.462e-01 1.662e-01 *D fd4qd1_hd 
i_X_DATA\[4\] I *L 1.900e-03 *S 1.462e-01 1.662e-01 *D fd4qd1_hd 
i_X_DATA\[3\] I *L 1.900e-03 *S 1.462e-01 1.662e-01 *D fd4qd1_hd 
i_X_DATA\[2\] I *L 1.900e-03 *S 1.462e-01 1.662e-01 *D fd4qd1_hd 
i_X_DATA\[1\] I *L 1.900e-03 *S 1.462e-01 1.662e-01 *D fd4qd1_hd 
i_X_DATA\[0\] I *L 1.900e-03 *S 1.462e-01 1.662e-01 *D fd4qd1_hd 
i_X_DATA_VALID I *L 1.900e-03 *S 1.455e-01 1.655e-01 *D fd4qd1_hd 
o_X_DATA_READY O *L 1.035e-02 *S 3.288e-01 2.391e-01 
o_Y_DATA\[31\] O *L 1.035e-02 *S 2.657e-01 2.903e-01 
o_Y_DATA\[30\] O *L 1.035e-02 *S 2.653e-01 2.899e-01 
o_Y_DATA\[29\] O *L 1.035e-02 *S 2.653e-01 2.899e-01 
o_Y_DATA\[28\] O *L 1.035e-02 *S 2.653e-01 2.899e-01 
o_Y_DATA\[27\] O *L 1.035e-02 *S 2.653e-01 2.899e-01 
o_Y_DATA\[26\] O *L 1.035e-02 *S 2.653e-01 2.899e-01 
o_Y_DATA\[25\] O *L 1.035e-02 *S 2.653e-01 2.899e-01 
o_Y_DATA\[24\] O *L 1.035e-02 *S 2.653e-01 2.899e-01 
o_Y_DATA\[23\] O *L 1.035e-02 *S 2.653e-01 2.899e-01 
o_Y_DATA\[22\] O *L 1.035e-02 *S 2.653e-01 2.899e-01 
o_Y_DATA\[21\] O *L 1.035e-02 *S 2.653e-01 2.899e-01 
o_Y_DATA\[20\] O *L 1.035e-02 *S 2.653e-01 2.899e-01 
o_Y_DATA\[19\] O *L 1.035e-02 *S 2.653e-01 2.899e-01 
o_Y_DATA\[18\] O *L 1.035e-02 *S 2.653e-01 2.899e-01 
o_Y_DATA\[17\] O *L 1.035e-02 *S 2.653e-01 2.899e-01 
o_Y_DATA\[16\] O *L 1.035e-02 *S 2.653e-01 2.899e-01 
o_Y_DATA\[15\] O *L 1.035e-02 *S 2.653e-01 2.899e-01 
o_Y_DATA\[14\] O *L 1.035e-02 *S 2.653e-01 2.899e-01 
o_Y_DATA\[13\] O *L 1.035e-02 *S 2.653e-01 2.899e-01 
o_Y_DATA\[12\] O *L 1.035e-02 *S 2.653e-01 2.899e-01 
o_Y_DATA\[11\] O *L 1.035e-02 *S 2.653e-01 2.899e-01 
o_Y_DATA\[10\] O *L 1.035e-02 *S 2.653e-01 2.899e-01 
o_Y_DATA\[9\] O *L 1.035e-02 *S 2.653e-01 2.899e-01 
o_Y_DATA\[8\] O *L 1.035e-02 *S 2.653e-01 2.899e-01 
o_Y_DATA\[7\] O *L 1.035e-02 *S 2.653e-01 2.899e-01 
o_Y_DATA\[6\] O *L 1.035e-02 *S 2.653e-01 2.899e-01 
o_Y_DATA\[5\] O *L 1.035e-02 *S 2.653e-01 2.899e-01 
o_Y_DATA\[4\] O *L 1.035e-02 *S 2.653e-01 2.899e-01 
o_Y_DATA\[3\] O *L 1.035e-02 *S 2.653e-01 2.899e-01 
o_Y_DATA\[2\] O *L 1.035e-02 *S 2.653e-01 2.899e-01 
o_Y_DATA\[1\] O *L 1.035e-02 *S 2.653e-01 2.899e-01 
o_Y_DATA\[0\] O *L 1.035e-02 *S 2.653e-01 2.899e-01 
o_Y_DATA_VALID O *L 1.035e-02 *S 3.345e-01 3.464e-01 
i_Y_ACK I *L 1.900e-03 *S 1.506e-01 1.704e-01 *D fd4qd1_hd 
i_CLK I *L 0.000e+00 *S 0.000e+00 0.000e+00 
i_RSTN I *L 2.249e+00 *S 0.000e+00 0.000e+00 

*R_NET i_X_DATA\[31\] 1.453e-02
*DRIVER i_X_DATA\[31\]
*CELL fd4qd1_hd
*C2_R1_C1 7.265e-03 1.275e-02 7.265e-03 
*LOADS
*RC r_x_data_reg_31_:D 1.853e-04
*END

*R_NET i_X_DATA\[30\] 1.453e-02
*DRIVER i_X_DATA\[30\]
*CELL fd4qd1_hd
*C2_R1_C1 7.265e-03 1.275e-02 7.265e-03 
*LOADS
*RC r_x_data_reg_30_:D 1.853e-04
*END

*R_NET i_X_DATA\[29\] 1.453e-02
*DRIVER i_X_DATA\[29\]
*CELL fd4qd1_hd
*C2_R1_C1 7.265e-03 1.275e-02 7.265e-03 
*LOADS
*RC r_x_data_reg_29_:D 1.853e-04
*END

*R_NET i_X_DATA\[28\] 1.453e-02
*DRIVER i_X_DATA\[28\]
*CELL fd4qd1_hd
*C2_R1_C1 7.265e-03 1.275e-02 7.265e-03 
*LOADS
*RC r_x_data_reg_28_:D 1.853e-04
*END

*R_NET i_X_DATA\[27\] 1.453e-02
*DRIVER i_X_DATA\[27\]
*CELL fd4qd1_hd
*C2_R1_C1 7.265e-03 1.275e-02 7.265e-03 
*LOADS
*RC r_x_data_reg_27_:D 1.853e-04
*END

*R_NET i_X_DATA\[26\] 1.453e-02
*DRIVER i_X_DATA\[26\]
*CELL fd4qd1_hd
*C2_R1_C1 7.265e-03 1.275e-02 7.265e-03 
*LOADS
*RC r_x_data_reg_26_:D 1.853e-04
*END

*R_NET i_X_DATA\[25\] 1.453e-02
*DRIVER i_X_DATA\[25\]
*CELL fd4qd1_hd
*C2_R1_C1 7.265e-03 1.275e-02 7.265e-03 
*LOADS
*RC r_x_data_reg_25_:D 1.853e-04
*END

*R_NET i_X_DATA\[24\] 1.453e-02
*DRIVER i_X_DATA\[24\]
*CELL fd4qd1_hd
*C2_R1_C1 7.265e-03 1.275e-02 7.265e-03 
*LOADS
*RC r_x_data_reg_24_:D 1.853e-04
*END

*R_NET i_X_DATA\[23\] 1.453e-02
*DRIVER i_X_DATA\[23\]
*CELL fd4qd1_hd
*C2_R1_C1 7.265e-03 1.275e-02 7.265e-03 
*LOADS
*RC r_x_data_reg_23_:D 1.853e-04
*END

*R_NET i_X_DATA\[22\] 1.453e-02
*DRIVER i_X_DATA\[22\]
*CELL fd4qd1_hd
*C2_R1_C1 7.265e-03 1.275e-02 7.265e-03 
*LOADS
*RC r_x_data_reg_22_:D 1.853e-04
*END

*R_NET i_X_DATA\[21\] 1.453e-02
*DRIVER i_X_DATA\[21\]
*CELL fd4qd1_hd
*C2_R1_C1 7.265e-03 1.275e-02 7.265e-03 
*LOADS
*RC r_x_data_reg_21_:D 1.853e-04
*END

*R_NET i_X_DATA\[20\] 1.453e-02
*DRIVER i_X_DATA\[20\]
*CELL fd4qd1_hd
*C2_R1_C1 7.265e-03 1.275e-02 7.265e-03 
*LOADS
*RC r_x_data_reg_20_:D 1.853e-04
*END

*R_NET i_X_DATA\[19\] 1.453e-02
*DRIVER i_X_DATA\[19\]
*CELL fd4qd1_hd
*C2_R1_C1 7.265e-03 1.275e-02 7.265e-03 
*LOADS
*RC r_x_data_reg_19_:D 1.853e-04
*END

*R_NET i_X_DATA\[18\] 1.453e-02
*DRIVER i_X_DATA\[18\]
*CELL fd4qd1_hd
*C2_R1_C1 7.265e-03 1.275e-02 7.265e-03 
*LOADS
*RC r_x_data_reg_18_:D 1.853e-04
*END

*R_NET i_X_DATA\[17\] 1.453e-02
*DRIVER i_X_DATA\[17\]
*CELL fd4qd1_hd
*C2_R1_C1 7.265e-03 1.275e-02 7.265e-03 
*LOADS
*RC r_x_data_reg_17_:D 1.853e-04
*END

*R_NET i_X_DATA\[16\] 1.453e-02
*DRIVER i_X_DATA\[16\]
*CELL fd4qd1_hd
*C2_R1_C1 7.265e-03 1.275e-02 7.265e-03 
*LOADS
*RC r_x_data_reg_16_:D 1.853e-04
*END

*R_NET i_X_DATA\[15\] 1.453e-02
*DRIVER i_X_DATA\[15\]
*CELL fd4qd1_hd
*C2_R1_C1 7.265e-03 1.275e-02 7.265e-03 
*LOADS
*RC r_x_data_reg_15_:D 1.853e-04
*END

*R_NET i_X_DATA\[14\] 1.453e-02
*DRIVER i_X_DATA\[14\]
*CELL fd4qd1_hd
*C2_R1_C1 7.265e-03 1.275e-02 7.265e-03 
*LOADS
*RC r_x_data_reg_14_:D 1.853e-04
*END

*R_NET i_X_DATA\[13\] 1.453e-02
*DRIVER i_X_DATA\[13\]
*CELL fd4qd1_hd
*C2_R1_C1 7.265e-03 1.275e-02 7.265e-03 
*LOADS
*RC r_x_data_reg_13_:D 1.853e-04
*END

*R_NET i_X_DATA\[12\] 1.453e-02
*DRIVER i_X_DATA\[12\]
*CELL fd4qd1_hd
*C2_R1_C1 7.265e-03 1.275e-02 7.265e-03 
*LOADS
*RC r_x_data_reg_12_:D 1.853e-04
*END

*R_NET i_X_DATA\[11\] 1.453e-02
*DRIVER i_X_DATA\[11\]
*CELL fd4qd1_hd
*C2_R1_C1 7.265e-03 1.275e-02 7.265e-03 
*LOADS
*RC r_x_data_reg_11_:D 1.853e-04
*END

*R_NET i_X_DATA\[10\] 1.453e-02
*DRIVER i_X_DATA\[10\]
*CELL fd4qd1_hd
*C2_R1_C1 7.265e-03 1.275e-02 7.265e-03 
*LOADS
*RC r_x_data_reg_10_:D 1.853e-04
*END

*R_NET i_X_DATA\[9\] 1.453e-02
*DRIVER i_X_DATA\[9\]
*CELL fd4qd1_hd
*C2_R1_C1 7.265e-03 1.275e-02 7.265e-03 
*LOADS
*RC r_x_data_reg_9_:D 1.853e-04
*END

*R_NET i_X_DATA\[8\] 1.453e-02
*DRIVER i_X_DATA\[8\]
*CELL fd4qd1_hd
*C2_R1_C1 7.265e-03 1.275e-02 7.265e-03 
*LOADS
*RC r_x_data_reg_8_:D 1.853e-04
*END

*R_NET i_X_DATA\[7\] 1.453e-02
*DRIVER i_X_DATA\[7\]
*CELL fd4qd1_hd
*C2_R1_C1 7.265e-03 1.275e-02 7.265e-03 
*LOADS
*RC r_x_data_reg_7_:D 1.853e-04
*END

*R_NET i_X_DATA\[6\] 1.453e-02
*DRIVER i_X_DATA\[6\]
*CELL fd4qd1_hd
*C2_R1_C1 7.265e-03 1.275e-02 7.265e-03 
*LOADS
*RC r_x_data_reg_6_:D 1.853e-04
*END

*R_NET i_X_DATA\[5\] 1.453e-02
*DRIVER i_X_DATA\[5\]
*CELL fd4qd1_hd
*C2_R1_C1 7.265e-03 1.275e-02 7.265e-03 
*LOADS
*RC r_x_data_reg_5_:D 1.853e-04
*END

*R_NET i_X_DATA\[4\] 1.453e-02
*DRIVER i_X_DATA\[4\]
*CELL fd4qd1_hd
*C2_R1_C1 7.265e-03 1.275e-02 7.265e-03 
*LOADS
*RC r_x_data_reg_4_:D 1.853e-04
*END

*R_NET i_X_DATA\[3\] 1.453e-02
*DRIVER i_X_DATA\[3\]
*CELL fd4qd1_hd
*C2_R1_C1 7.265e-03 1.275e-02 7.265e-03 
*LOADS
*RC r_x_data_reg_3_:D 1.853e-04
*END

*R_NET i_X_DATA\[2\] 1.453e-02
*DRIVER i_X_DATA\[2\]
*CELL fd4qd1_hd
*C2_R1_C1 7.265e-03 1.275e-02 7.265e-03 
*LOADS
*RC r_x_data_reg_2_:D 1.853e-04
*END

*R_NET i_X_DATA\[1\] 1.453e-02
*DRIVER i_X_DATA\[1\]
*CELL fd4qd1_hd
*C2_R1_C1 7.265e-03 1.275e-02 7.265e-03 
*LOADS
*RC r_x_data_reg_1_:D 1.853e-04
*END

*R_NET i_X_DATA\[0\] 1.453e-02
*DRIVER i_X_DATA\[0\]
*CELL fd4qd1_hd
*C2_R1_C1 7.265e-03 1.275e-02 7.265e-03 
*LOADS
*RC r_x_data_reg_0_:D 1.853e-04
*END

*R_NET o_Y_DATA\[31\] 3.077e-02
*DRIVER o_Y_DATA_reg_31_:Q
*CELL fd2qd1_hd
*C2_R1_C1 1.539e-02 1.469e-02 1.539e-02 
*LOADS
*RC U184:A 4.520e-04
*RC r_y_data_reg_31_:D 4.520e-04
*RC o_Y_DATA\[31\] 4.520e-04
*END

*R_NET o_Y_DATA\[30\] 3.071e-02
*DRIVER o_Y_DATA_reg_30_:Q
*CELL fd2qd1_hd
*C2_R1_C1 1.536e-02 1.469e-02 1.536e-02 
*LOADS
*RC U217:D 4.511e-04
*RC r_y_data_reg_30_:D 4.511e-04
*RC o_Y_DATA\[30\] 4.511e-04
*END

*R_NET o_Y_DATA\[29\] 3.071e-02
*DRIVER o_Y_DATA_reg_29_:Q
*CELL fd2qd1_hd
*C2_R1_C1 1.536e-02 1.469e-02 1.536e-02 
*LOADS
*RC U265:D 4.511e-04
*RC r_y_data_reg_29_:D 4.511e-04
*RC o_Y_DATA\[29\] 4.511e-04
*END

*R_NET o_Y_DATA\[28\] 3.071e-02
*DRIVER o_Y_DATA_reg_28_:Q
*CELL fd2qd1_hd
*C2_R1_C1 1.536e-02 1.469e-02 1.536e-02 
*LOADS
*RC U264:D 4.511e-04
*RC r_y_data_reg_28_:D 4.511e-04
*RC o_Y_DATA\[28\] 4.511e-04
*END

*R_NET o_Y_DATA\[27\] 3.071e-02
*DRIVER o_Y_DATA_reg_27_:Q
*CELL fd2qd1_hd
*C2_R1_C1 1.536e-02 1.469e-02 1.536e-02 
*LOADS
*RC U216:D 4.511e-04
*RC r_y_data_reg_27_:D 4.511e-04
*RC o_Y_DATA\[27\] 4.511e-04
*END

*R_NET o_Y_DATA\[26\] 3.071e-02
*DRIVER o_Y_DATA_reg_26_:Q
*CELL fd2qd1_hd
*C2_R1_C1 1.536e-02 1.469e-02 1.536e-02 
*LOADS
*RC U263:D 4.511e-04
*RC r_y_data_reg_26_:D 4.511e-04
*RC o_Y_DATA\[26\] 4.511e-04
*END

*R_NET o_Y_DATA\[25\] 3.071e-02
*DRIVER o_Y_DATA_reg_25_:Q
*CELL fd2qd1_hd
*C2_R1_C1 1.536e-02 1.469e-02 1.536e-02 
*LOADS
*RC U215:D 4.511e-04
*RC r_y_data_reg_25_:D 4.511e-04
*RC o_Y_DATA\[25\] 4.511e-04
*END

*R_NET o_Y_DATA\[24\] 3.071e-02
*DRIVER o_Y_DATA_reg_24_:Q
*CELL fd2qd1_hd
*C2_R1_C1 1.536e-02 1.469e-02 1.536e-02 
*LOADS
*RC U262:D 4.511e-04
*RC r_y_data_reg_24_:D 4.511e-04
*RC o_Y_DATA\[24\] 4.511e-04
*END

*R_NET o_Y_DATA\[23\] 3.071e-02
*DRIVER o_Y_DATA_reg_23_:Q
*CELL fd2qd1_hd
*C2_R1_C1 1.536e-02 1.469e-02 1.536e-02 
*LOADS
*RC U214:D 4.511e-04
*RC r_y_data_reg_23_:D 4.511e-04
*RC o_Y_DATA\[23\] 4.511e-04
*END

*R_NET o_Y_DATA\[22\] 3.071e-02
*DRIVER o_Y_DATA_reg_22_:Q
*CELL fd2qd1_hd
*C2_R1_C1 1.536e-02 1.469e-02 1.536e-02 
*LOADS
*RC U261:D 4.511e-04
*RC r_y_data_reg_22_:D 4.511e-04
*RC o_Y_DATA\[22\] 4.511e-04
*END

*R_NET o_Y_DATA\[21\] 3.071e-02
*DRIVER o_Y_DATA_reg_21_:Q
*CELL fd2qd1_hd
*C2_R1_C1 1.536e-02 1.469e-02 1.536e-02 
*LOADS
*RC U213:D 4.511e-04
*RC r_y_data_reg_21_:D 4.511e-04
*RC o_Y_DATA\[21\] 4.511e-04
*END

*R_NET o_Y_DATA\[20\] 3.071e-02
*DRIVER o_Y_DATA_reg_20_:Q
*CELL fd2qd1_hd
*C2_R1_C1 1.536e-02 1.469e-02 1.536e-02 
*LOADS
*RC U260:D 4.511e-04
*RC r_y_data_reg_20_:D 4.511e-04
*RC o_Y_DATA\[20\] 4.511e-04
*END

*R_NET o_Y_DATA\[19\] 3.071e-02
*DRIVER o_Y_DATA_reg_19_:Q
*CELL fd2qd1_hd
*C2_R1_C1 1.536e-02 1.469e-02 1.536e-02 
*LOADS
*RC U212:D 4.511e-04
*RC r_y_data_reg_19_:D 4.511e-04
*RC o_Y_DATA\[19\] 4.511e-04
*END

*R_NET o_Y_DATA\[18\] 3.071e-02
*DRIVER o_Y_DATA_reg_18_:Q
*CELL fd2qd1_hd
*C2_R1_C1 1.536e-02 1.469e-02 1.536e-02 
*LOADS
*RC U259:D 4.511e-04
*RC r_y_data_reg_18_:D 4.511e-04
*RC o_Y_DATA\[18\] 4.511e-04
*END

*R_NET o_Y_DATA\[17\] 3.071e-02
*DRIVER o_Y_DATA_reg_17_:Q
*CELL fd2qd1_hd
*C2_R1_C1 1.536e-02 1.469e-02 1.536e-02 
*LOADS
*RC U211:D 4.511e-04
*RC r_y_data_reg_17_:D 4.511e-04
*RC o_Y_DATA\[17\] 4.511e-04
*END

*R_NET o_Y_DATA\[16\] 3.071e-02
*DRIVER o_Y_DATA_reg_16_:Q
*CELL fd2qd1_hd
*C2_R1_C1 1.536e-02 1.469e-02 1.536e-02 
*LOADS
*RC U258:D 4.511e-04
*RC r_y_data_reg_16_:D 4.511e-04
*RC o_Y_DATA\[16\] 4.511e-04
*END

*R_NET o_Y_DATA\[15\] 3.071e-02
*DRIVER o_Y_DATA_reg_15_:Q
*CELL fd2qd1_hd
*C2_R1_C1 1.536e-02 1.469e-02 1.536e-02 
*LOADS
*RC U210:D 4.511e-04
*RC r_y_data_reg_15_:D 4.511e-04
*RC o_Y_DATA\[15\] 4.511e-04
*END

*R_NET o_Y_DATA\[14\] 3.071e-02
*DRIVER o_Y_DATA_reg_14_:Q
*CELL fd2qd1_hd
*C2_R1_C1 1.536e-02 1.469e-02 1.536e-02 
*LOADS
*RC U257:D 4.511e-04
*RC r_y_data_reg_14_:D 4.511e-04
*RC o_Y_DATA\[14\] 4.511e-04
*END

*R_NET o_Y_DATA\[13\] 3.071e-02
*DRIVER o_Y_DATA_reg_13_:Q
*CELL fd2qd1_hd
*C2_R1_C1 1.536e-02 1.469e-02 1.536e-02 
*LOADS
*RC U209:D 4.511e-04
*RC r_y_data_reg_13_:D 4.511e-04
*RC o_Y_DATA\[13\] 4.511e-04
*END

*R_NET o_Y_DATA\[12\] 3.071e-02
*DRIVER o_Y_DATA_reg_12_:Q
*CELL fd2qd1_hd
*C2_R1_C1 1.536e-02 1.469e-02 1.536e-02 
*LOADS
*RC U256:D 4.511e-04
*RC r_y_data_reg_12_:D 4.511e-04
*RC o_Y_DATA\[12\] 4.511e-04
*END

*R_NET o_Y_DATA\[11\] 3.071e-02
*DRIVER o_Y_DATA_reg_11_:Q
*CELL fd2qd1_hd
*C2_R1_C1 1.536e-02 1.469e-02 1.536e-02 
*LOADS
*RC U208:D 4.511e-04
*RC r_y_data_reg_11_:D 4.511e-04
*RC o_Y_DATA\[11\] 4.511e-04
*END

*R_NET o_Y_DATA\[10\] 3.071e-02
*DRIVER o_Y_DATA_reg_10_:Q
*CELL fd2qd1_hd
*C2_R1_C1 1.536e-02 1.469e-02 1.536e-02 
*LOADS
*RC U255:D 4.511e-04
*RC r_y_data_reg_10_:D 4.511e-04
*RC o_Y_DATA\[10\] 4.511e-04
*END

*R_NET o_Y_DATA\[9\] 3.071e-02
*DRIVER o_Y_DATA_reg_9_:Q
*CELL fd2qd1_hd
*C2_R1_C1 1.536e-02 1.469e-02 1.536e-02 
*LOADS
*RC U207:D 4.511e-04
*RC r_y_data_reg_9_:D 4.511e-04
*RC o_Y_DATA\[9\] 4.511e-04
*END

*R_NET o_Y_DATA\[8\] 3.071e-02
*DRIVER o_Y_DATA_reg_8_:Q
*CELL fd2qd1_hd
*C2_R1_C1 1.536e-02 1.469e-02 1.536e-02 
*LOADS
*RC U254:D 4.511e-04
*RC r_y_data_reg_8_:D 4.511e-04
*RC o_Y_DATA\[8\] 4.511e-04
*END

*R_NET o_Y_DATA\[7\] 3.071e-02
*DRIVER o_Y_DATA_reg_7_:Q
*CELL fd2qd1_hd
*C2_R1_C1 1.536e-02 1.469e-02 1.536e-02 
*LOADS
*RC U206:D 4.511e-04
*RC r_y_data_reg_7_:D 4.511e-04
*RC o_Y_DATA\[7\] 4.511e-04
*END

*R_NET o_Y_DATA\[6\] 3.071e-02
*DRIVER o_Y_DATA_reg_6_:Q
*CELL fd2qd1_hd
*C2_R1_C1 1.536e-02 1.469e-02 1.536e-02 
*LOADS
*RC U253:D 4.511e-04
*RC r_y_data_reg_6_:D 4.511e-04
*RC o_Y_DATA\[6\] 4.511e-04
*END

*R_NET o_Y_DATA\[5\] 3.071e-02
*DRIVER o_Y_DATA_reg_5_:Q
*CELL fd2qd1_hd
*C2_R1_C1 1.536e-02 1.469e-02 1.536e-02 
*LOADS
*RC U205:D 4.511e-04
*RC r_y_data_reg_5_:D 4.511e-04
*RC o_Y_DATA\[5\] 4.511e-04
*END

*R_NET o_Y_DATA\[4\] 3.071e-02
*DRIVER o_Y_DATA_reg_4_:Q
*CELL fd2qd1_hd
*C2_R1_C1 1.536e-02 1.469e-02 1.536e-02 
*LOADS
*RC U252:D 4.511e-04
*RC r_y_data_reg_4_:D 4.511e-04
*RC o_Y_DATA\[4\] 4.511e-04
*END

*R_NET o_Y_DATA\[3\] 3.071e-02
*DRIVER o_Y_DATA_reg_3_:Q
*CELL fd2qd1_hd
*C2_R1_C1 1.536e-02 1.469e-02 1.536e-02 
*LOADS
*RC U204:D 4.511e-04
*RC r_y_data_reg_3_:D 4.511e-04
*RC o_Y_DATA\[3\] 4.511e-04
*END

*R_NET o_Y_DATA\[2\] 3.071e-02
*DRIVER o_Y_DATA_reg_2_:Q
*CELL fd2qd1_hd
*C2_R1_C1 1.536e-02 1.469e-02 1.536e-02 
*LOADS
*RC U251:D 4.511e-04
*RC r_y_data_reg_2_:D 4.511e-04
*RC o_Y_DATA\[2\] 4.511e-04
*END

*R_NET o_Y_DATA\[1\] 3.071e-02
*DRIVER o_Y_DATA_reg_1_:Q
*CELL fd2qd1_hd
*C2_R1_C1 1.536e-02 1.469e-02 1.536e-02 
*LOADS
*RC U203:D 4.511e-04
*RC r_y_data_reg_1_:D 4.511e-04
*RC o_Y_DATA\[1\] 4.511e-04
*END

*R_NET o_Y_DATA\[0\] 3.071e-02
*DRIVER o_Y_DATA_reg_0_:Q
*CELL fd2qd1_hd
*C2_R1_C1 1.536e-02 1.469e-02 1.536e-02 
*LOADS
*RC U250:D 4.511e-04
*RC r_y_data_reg_0_:D 4.511e-04
*RC o_Y_DATA\[0\] 4.511e-04
*END

*R_NET i_X_DATA_VALID 1.444e-02
*DRIVER i_X_DATA_VALID
*CELL fd4qd1_hd
*C2_R1_C1 7.220e-03 1.275e-02 7.220e-03 
*LOADS
*RC U183:A 1.841e-04
*END

*R_NET i_Y_ACK 1.504e-02
*DRIVER i_Y_ACK
*CELL fd4qd1_hd
*C2_R1_C1 7.520e-03 1.275e-02 7.520e-03 
*LOADS
*RC U869:B 1.918e-04
*END

*R_NET i_CLK 1.020e+03
*DRIVER i_CLK
*CELL NULL
*C2_R1_C1 5.101e+02 0.000e+00 5.101e+02 
*LOADS
*RC clk_gate_r_mult_AB_STB_reg/latch:CK 0.000e+00
*RC clk_gate_o_Y_DATA_reg_31_/latch:CK 0.000e+00
*RC clk_gate_r_mult_A_reg_29_/latch:CK 0.000e+00
*RC clk_gate_r_add_B_reg_31_/latch:CK 0.000e+00
*RC clk_gate_r_y_data_reg_31_/latch:CK 0.000e+00
*RC add/DP_OP_139_128_9073/clk_gate_clk_r_REG122_S1/latch:CK 0.000e+00
*RC add/DP_OP_142_125_4840/clk_gate_clk_r_REG245_S1/latch:CK 0.000e+00
*RC mult/clk_gate_clk_r_REG53_S7/latch:CK 0.000e+00
*RC mult/clk_gate_clk_r_REG62_S9/latch:CK 0.000e+00
*RC mult/clk_gate_clk_r_REG116_S9/latch:CK 0.000e+00
*RC mult/clk_gate_clk_r_REG29_S4/latch:CK 0.000e+00
*RC mult/clk_gate_clk_r_REG167_S8/latch:CK 0.000e+00
*RC mult/clk_gate_clk_r_REG181_S8/latch:CK 0.000e+00
*RC mult/clk_gate_clk_r_REG153_S9/latch:CK 0.000e+00
*RC mult/clk_gate_clk_r_REG13_S3/latch:CK 0.000e+00
*RC mult/clk_gate_clk_r_REG4_S4/latch:CK 0.000e+00
*RC mult/clk_gate_clk_r_REG0_S1/latch:CK 0.000e+00
*RC add/clk_gate_clk_r_REG277_S1/latch:CK 0.000e+00
*RC add/clk_gate_clk_r_REG209_S4/latch:CK 0.000e+00
*RC add/clk_gate_clk_r_REG173_S4/latch:CK 0.000e+00
*RC add/clk_gate_clk_r_REG135_S4/latch:CK 0.000e+00
*RC add/clk_gate_clk_r_REG13_S12/latch:CK 0.000e+00
*RC add/clk_gate_clk_r_REG123_S2/latch:CK 0.000e+00
*RC add/clk_gate_clk_r_REG125_S4/latch:CK 0.000e+00
*RC add/clk_gate_clk_r_REG4_S3/latch:CK 0.000e+00
*RC add/clk_gate_clk_r_REG17_S14/latch:CK 0.000e+00
*RC add/clk_gate_clk_r_REG3_S4/latch:CK 0.000e+00
*RC add/clk_gate_clk_r_REG0_S1/latch:CK 0.000e+00
*RC add/gte_x_3/clk_r_REG212_S4:CK 0.000e+00
*RC mult/clk_r_REG108_S9:CK 0.000e+00
*RC r_pstate_reg_1_:CK 0.000e+00
*RC r_pstate_reg_0_:CK 0.000e+00
*RC o_Y_DATA_VALID_reg:CK 0.000e+00
*END

*R_NET o_X_DATA_READY 3.886e-02
*DRIVER o_X_DATA_READY_reg:Q
*CELL fd1qd1_hd
*C2_R1_C1 1.943e-02 1.924e-02 1.943e-02 
*LOADS
*RC U183:B 7.477e-04
*RC U556:D0 7.477e-04
*RC o_X_DATA_READY 7.477e-04
*END

*R_NET o_Y_DATA_VALID 3.932e-02
*DRIVER o_Y_DATA_VALID_reg:Q
*CELL fd2qd1_hd
*C2_R1_C1 1.966e-02 1.924e-02 1.966e-02 
*LOADS
*RC U869:A 7.565e-04
*RC U553:D0 7.565e-04
*RC o_Y_DATA_VALID 7.565e-04
*END

*R_NET r_add_AB_STB 2.106e-02
*DRIVER r_add_AB_STB_reg:Q
*CELL fd2qd1_hd
*C2_R1_C1 1.053e-02 1.366e-02 1.053e-02 
*LOADS
*RC U549:D0 2.877e-04
*RC add/U718:A 2.877e-04
*RC add/U386:B 2.877e-04
*END

*R_NET w_add_AB_ACK 2.125e-02
*DRIVER add/clk_r_REG276_S1:Q
*CELL fd1eqd1_hd
*C2_R1_C1 1.063e-02 1.366e-02 1.063e-02 
*LOADS
*RC add/U718:B 2.903e-04
*RC add/U386:C 2.903e-04
*RC U482:B 2.903e-04
*END

*R_NET w_add_Z_STB 4.013e-02
*DRIVER add/clk_r_REG277_S1:Q
*CELL fd1eqd1_hd
*C2_R1_C1 2.007e-02 1.956e-02 2.007e-02 
*LOADS
*RC add/U731:B 7.849e-04
*RC add/U716:B 7.849e-04
*RC U481:B 7.849e-04
*RC U465:A 7.849e-04
*RC U130:D 7.849e-04
*END

*R_NET r_add_Z_ACK 2.105e-02
*DRIVER r_add_Z_ACK_reg:Q
*CELL fd2qd1_hd
*C2_R1_C1 1.053e-02 1.366e-02 1.053e-02 
*LOADS
*RC U773:D0 2.875e-04
*RC add/U731:A 2.875e-04
*RC add/U716:A 2.875e-04
*END

*R_NET r_mult_AB_STB 2.007e-02
*DRIVER r_mult_AB_STB_reg:Q
*CELL fd2qd1_hd
*C2_R1_C1 1.004e-02 1.366e-02 1.004e-02 
*LOADS
*RC U551:D0 2.742e-04
*RC mult/U19:B 2.742e-04
*RC mult/U374:A 2.742e-04
*END

*R_NET w_mult_AB_ACK 2.030e-02
*DRIVER mult/clk_r_REG265_S1:Q
*CELL fd1eqd1_hd
*C2_R1_C1 1.015e-02 1.366e-02 1.015e-02 
*LOADS
*RC mult/U19:C 2.773e-04
*RC mult/U374:B 2.773e-04
*RC U482:A 2.773e-04
*END

*R_NET w_mult_Z_STB 3.862e-02
*DRIVER mult/clk_r_REG266_S1:Q
*CELL fd1eqd1_hd
*C2_R1_C1 1.931e-02 1.956e-02 1.931e-02 
*LOADS
*RC mult/U385:B 7.554e-04
*RC mult/U372:B 7.554e-04
*RC U484:A 7.554e-04
*RC U465:B 7.554e-04
*RC U464:A 7.554e-04
*END

*R_NET r_mult_Z_ACK 2.001e-02
*DRIVER r_mult_Z_ACK_reg:Q
*CELL fd2qd1_hd
*C2_R1_C1 1.001e-02 1.366e-02 1.001e-02 
*LOADS
*RC U772:D0 2.733e-04
*RC mult/U385:A 2.733e-04
*RC mult/U372:A 2.733e-04
*END

*R_NET N25 1.324e-02
*DRIVER U180:Y
*CELL ivd1_hd
*C2_R1_C1 6.620e-03 1.157e-02 6.620e-03 
*LOADS
*RC U283:A 1.532e-04
*RC U475:A 1.532e-04
*END

*R_NET N26 1.360e-02
*DRIVER U857:Y
*CELL ivd1_hd
*C2_R1_C1 6.800e-03 1.157e-02 6.800e-03 
*LOADS
*RC U780:B 1.574e-04
*RC U475:B 1.574e-04
*END

*R_NET N27 1.934e-02
*DRIVER U475:Y
*CELL ad2d1_hd
*C2_R1_C1 9.670e-03 1.366e-02 9.670e-03 
*LOADS
*RC U868:A 2.642e-04
*RC U557:A 2.642e-04
*RC U554:A 2.642e-04
*END

*R_NET N28 5.814e-02
*DRIVER U780:Y
*CELL or2d1_hd
*C2_R1_C1 2.907e-02 2.162e-02 2.907e-02 
*LOADS
*RC U182:C 1.257e-03
*RC U288:B 1.257e-03
*RC U288:C 1.257e-03
*RC U781:A 1.257e-03
*RC U178:B 1.257e-03
*RC U144:B 1.257e-03
*RC U123:B 1.257e-03
*END

*R_NET N29 3.167e-02
*DRIVER U781:Y
*CELL ivd1_hd
*C2_R1_C1 1.584e-02 1.824e-02 1.584e-02 
*LOADS
*RC U791:A 5.777e-04
*RC U555:B 5.777e-04
*RC U297:A 5.777e-04
*RC U135:A 5.777e-04
*END

*R_NET N33 1.492e-02
*DRIVER U183:Y
*CELL ad2d1_hd
*C2_R1_C1 7.460e-03 1.157e-02 7.460e-03 
*LOADS
*RC U282:A 1.726e-04
*RC clk_gate_r_y_data_reg_31_/latch:EN 1.726e-04
*END

*R_NET N34 1.463e-02
*DRIVER U282:Y
*CELL ivd1_hd
*C2_R1_C1 7.315e-03 1.157e-02 7.315e-03 
*LOADS
*RC U556:D1 1.693e-04
*RC U125:A 1.693e-04
*END

*R_NET N37 3.103e-02
*DRIVER U179:Y
*CELL ivd1_hd
*C2_R1_C1 1.551e-02 1.824e-02 1.551e-02 
*LOADS
*RC U861:A 5.660e-04
*RC U469:A 5.660e-04
*RC U468:A 5.660e-04
*RC U467:A 5.660e-04
*END

*R_NET N38 3.157e-02
*DRIVER U462:Y
*CELL ivd1_hd
*C2_R1_C1 1.579e-02 1.824e-02 1.579e-02 
*LOADS
*RC U862:B 5.758e-04
*RC U470:B 5.758e-04
*RC U469:B 5.758e-04
*RC U467:B 5.758e-04
*END

*R_NET N39 3.795e-02
*DRIVER U469:Y
*CELL ad2d1_hd
*C2_R1_C1 1.897e-02 1.956e-02 1.897e-02 
*LOADS
*RC U552:A 7.423e-04
*RC U550:A 7.423e-04
*RC U479:B 7.423e-04
*RC U471:A 7.423e-04
*RC U297:B 7.423e-04
*END

*R_NET N48 5.220e-03
*DRIVER U471:Y
*CELL or3d1_hd
*C2_R1_C1 2.610e-03 7.940e-03 2.610e-03 
*LOADS
*RC U135:B 4.145e-05
*END

*R_NET N49 5.430e-03
*DRIVER U550:Y
*CELL or2d1_hd
*C2_R1_C1 2.715e-03 7.940e-03 2.715e-03 
*LOADS
*RC U144:AN 4.311e-05
*END

*R_NET N114 5.430e-03
*DRIVER U552:Y
*CELL or2d1_hd
*C2_R1_C1 2.715e-03 7.940e-03 2.715e-03 
*LOADS
*RC U178:AN 4.311e-05
*END

*R_NET N311 2.068e-02
*DRIVER U467:Y
*CELL ad2d1_hd
*C2_R1_C1 1.034e-02 1.366e-02 1.034e-02 
*LOADS
*RC U485:B 2.825e-04
*RC U466:B 2.825e-04
*RC U130:A 2.825e-04
*END

*R_NET N317 1.469e-02
*DRIVER U465:Y
*CELL ad2d1_hd
*C2_R1_C1 7.345e-03 1.157e-02 7.345e-03 
*LOADS
*RC U865:A 1.700e-04
*RC U130:B 1.700e-04
*END

*R_NET N319 5.430e-03
*DRIVER U777:Y
*CELL xo2d1_hd
*C2_R1_C1 2.715e-03 7.940e-03 2.715e-03 
*LOADS
*RC U300:AN 4.311e-05
*END

*R_NET N320 1.499e-02
*DRIVER U865:Y
*CELL ivd1_hd
*C2_R1_C1 7.495e-03 1.157e-02 7.495e-03 
*LOADS
*RC U143:A 1.734e-04
*RC U124:B 1.734e-04
*END

*R_NET N322 6.340e-03
*DRIVER U484:Y
*CELL ivd1_hd
*C2_R1_C1 3.170e-03 7.940e-03 3.170e-03 
*LOADS
*RC U124:C 5.034e-05
*END

*R_NET N371 2.118e-02
*DRIVER U306:Y
*CELL ad2d1_hd
*C2_R1_C1 1.059e-02 1.366e-02 1.059e-02 
*LOADS
*RC U555:C 2.893e-04
*RC U553:D1 2.893e-04
*RC U122:D 2.893e-04
*END

*R_NET N374 5.600e-03
*DRIVER U301:Y
*CELL nr2d1_hd
*C2_R1_C1 2.800e-03 7.940e-03 2.800e-03 
*LOADS
*RC U778:D1 4.446e-05
*END

*R_NET N376 5.600e-03
*DRIVER U300:Y
*CELL nr2bd1_hd
*C2_R1_C1 2.800e-03 7.940e-03 2.800e-03 
*LOADS
*RC U776:D1 4.446e-05
*END

*R_NET N511 5.600e-03
*DRIVER U178:Y
*CELL nr2bd1_hd
*C2_R1_C1 2.800e-03 7.940e-03 2.800e-03 
*LOADS
*RC U551:D1 4.446e-05
*END

*R_NET N513 5.190e-03
*DRIVER U593:Y
*CELL scg2d1_hd
*C2_R1_C1 2.595e-03 7.940e-03 2.595e-03 
*LOADS
*RC o_Y_DATA_reg_0_:D 4.121e-05
*END

*R_NET N514 5.190e-03
*DRIVER U597:Y
*CELL scg2d1_hd
*C2_R1_C1 2.595e-03 7.940e-03 2.595e-03 
*LOADS
*RC o_Y_DATA_reg_1_:D 4.121e-05
*END

*R_NET N515 5.190e-03
*DRIVER U601:Y
*CELL scg2d1_hd
*C2_R1_C1 2.595e-03 7.940e-03 2.595e-03 
*LOADS
*RC o_Y_DATA_reg_2_:D 4.121e-05
*END

*R_NET N516 5.190e-03
*DRIVER U605:Y
*CELL scg2d1_hd
*C2_R1_C1 2.595e-03 7.940e-03 2.595e-03 
*LOADS
*RC o_Y_DATA_reg_3_:D 4.121e-05
*END

*R_NET N517 5.190e-03
*DRIVER U609:Y
*CELL scg2d1_hd
*C2_R1_C1 2.595e-03 7.940e-03 2.595e-03 
*LOADS
*RC o_Y_DATA_reg_4_:D 4.121e-05
*END

*R_NET N518 5.190e-03
*DRIVER U613:Y
*CELL scg2d1_hd
*C2_R1_C1 2.595e-03 7.940e-03 2.595e-03 
*LOADS
*RC o_Y_DATA_reg_5_:D 4.121e-05
*END

*R_NET N519 5.190e-03
*DRIVER U617:Y
*CELL scg2d1_hd
*C2_R1_C1 2.595e-03 7.940e-03 2.595e-03 
*LOADS
*RC o_Y_DATA_reg_6_:D 4.121e-05
*END

*R_NET N520 5.190e-03
*DRIVER U621:Y
*CELL scg2d1_hd
*C2_R1_C1 2.595e-03 7.940e-03 2.595e-03 
*LOADS
*RC o_Y_DATA_reg_7_:D 4.121e-05
*END

*R_NET N521 5.190e-03
*DRIVER U625:Y
*CELL scg2d1_hd
*C2_R1_C1 2.595e-03 7.940e-03 2.595e-03 
*LOADS
*RC o_Y_DATA_reg_8_:D 4.121e-05
*END

*R_NET N522 5.190e-03
*DRIVER U629:Y
*CELL scg2d1_hd
*C2_R1_C1 2.595e-03 7.940e-03 2.595e-03 
*LOADS
*RC o_Y_DATA_reg_9_:D 4.121e-05
*END

*R_NET N523 5.190e-03
*DRIVER U633:Y
*CELL scg2d1_hd
*C2_R1_C1 2.595e-03 7.940e-03 2.595e-03 
*LOADS
*RC o_Y_DATA_reg_10_:D 4.121e-05
*END

*R_NET N524 5.190e-03
*DRIVER U637:Y
*CELL scg2d1_hd
*C2_R1_C1 2.595e-03 7.940e-03 2.595e-03 
*LOADS
*RC o_Y_DATA_reg_11_:D 4.121e-05
*END

*R_NET N525 5.190e-03
*DRIVER U641:Y
*CELL scg2d1_hd
*C2_R1_C1 2.595e-03 7.940e-03 2.595e-03 
*LOADS
*RC o_Y_DATA_reg_12_:D 4.121e-05
*END

*R_NET N526 5.190e-03
*DRIVER U645:Y
*CELL scg2d1_hd
*C2_R1_C1 2.595e-03 7.940e-03 2.595e-03 
*LOADS
*RC o_Y_DATA_reg_13_:D 4.121e-05
*END

*R_NET N527 5.190e-03
*DRIVER U649:Y
*CELL scg2d1_hd
*C2_R1_C1 2.595e-03 7.940e-03 2.595e-03 
*LOADS
*RC o_Y_DATA_reg_14_:D 4.121e-05
*END

*R_NET N528 5.190e-03
*DRIVER U653:Y
*CELL scg2d1_hd
*C2_R1_C1 2.595e-03 7.940e-03 2.595e-03 
*LOADS
*RC o_Y_DATA_reg_15_:D 4.121e-05
*END

*R_NET N529 5.190e-03
*DRIVER U657:Y
*CELL scg2d1_hd
*C2_R1_C1 2.595e-03 7.940e-03 2.595e-03 
*LOADS
*RC o_Y_DATA_reg_16_:D 4.121e-05
*END

*R_NET N530 5.190e-03
*DRIVER U661:Y
*CELL scg2d1_hd
*C2_R1_C1 2.595e-03 7.940e-03 2.595e-03 
*LOADS
*RC o_Y_DATA_reg_17_:D 4.121e-05
*END

*R_NET N531 5.190e-03
*DRIVER U665:Y
*CELL scg2d1_hd
*C2_R1_C1 2.595e-03 7.940e-03 2.595e-03 
*LOADS
*RC o_Y_DATA_reg_18_:D 4.121e-05
*END

*R_NET N532 5.190e-03
*DRIVER U669:Y
*CELL scg2d1_hd
*C2_R1_C1 2.595e-03 7.940e-03 2.595e-03 
*LOADS
*RC o_Y_DATA_reg_19_:D 4.121e-05
*END

*R_NET N533 5.190e-03
*DRIVER U673:Y
*CELL scg2d1_hd
*C2_R1_C1 2.595e-03 7.940e-03 2.595e-03 
*LOADS
*RC o_Y_DATA_reg_20_:D 4.121e-05
*END

*R_NET N534 5.190e-03
*DRIVER U677:Y
*CELL scg2d1_hd
*C2_R1_C1 2.595e-03 7.940e-03 2.595e-03 
*LOADS
*RC o_Y_DATA_reg_21_:D 4.121e-05
*END

*R_NET N535 5.190e-03
*DRIVER U681:Y
*CELL scg2d1_hd
*C2_R1_C1 2.595e-03 7.940e-03 2.595e-03 
*LOADS
*RC o_Y_DATA_reg_22_:D 4.121e-05
*END

*R_NET N536 5.190e-03
*DRIVER U685:Y
*CELL scg2d1_hd
*C2_R1_C1 2.595e-03 7.940e-03 2.595e-03 
*LOADS
*RC o_Y_DATA_reg_23_:D 4.121e-05
*END

*R_NET N537 5.190e-03
*DRIVER U689:Y
*CELL scg2d1_hd
*C2_R1_C1 2.595e-03 7.940e-03 2.595e-03 
*LOADS
*RC o_Y_DATA_reg_24_:D 4.121e-05
*END

*R_NET N538 5.190e-03
*DRIVER U693:Y
*CELL scg2d1_hd
*C2_R1_C1 2.595e-03 7.940e-03 2.595e-03 
*LOADS
*RC o_Y_DATA_reg_25_:D 4.121e-05
*END

*R_NET N539 5.190e-03
*DRIVER U697:Y
*CELL scg2d1_hd
*C2_R1_C1 2.595e-03 7.940e-03 2.595e-03 
*LOADS
*RC o_Y_DATA_reg_26_:D 4.121e-05
*END

*R_NET N540 5.190e-03
*DRIVER U701:Y
*CELL scg2d1_hd
*C2_R1_C1 2.595e-03 7.940e-03 2.595e-03 
*LOADS
*RC o_Y_DATA_reg_27_:D 4.121e-05
*END

*R_NET N541 5.190e-03
*DRIVER U705:Y
*CELL scg2d1_hd
*C2_R1_C1 2.595e-03 7.940e-03 2.595e-03 
*LOADS
*RC o_Y_DATA_reg_28_:D 4.121e-05
*END

*R_NET N542 5.190e-03
*DRIVER U709:Y
*CELL scg2d1_hd
*C2_R1_C1 2.595e-03 7.940e-03 2.595e-03 
*LOADS
*RC o_Y_DATA_reg_29_:D 4.121e-05
*END

*R_NET N543 5.190e-03
*DRIVER U713:Y
*CELL scg2d1_hd
*C2_R1_C1 2.595e-03 7.940e-03 2.595e-03 
*LOADS
*RC o_Y_DATA_reg_30_:D 4.121e-05
*END

*R_NET N544 5.190e-03
*DRIVER U717:Y
*CELL scg2d1_hd
*C2_R1_C1 2.595e-03 7.940e-03 2.595e-03 
*LOADS
*RC o_Y_DATA_reg_31_:D 4.121e-05
*END

*R_NET N546 5.600e-03
*DRIVER U144:Y
*CELL nr2bd1_hd
*C2_R1_C1 2.800e-03 7.940e-03 2.800e-03 
*LOADS
*RC U549:D1 4.446e-05
*END

*R_NET N548 1.643e-02
*DRIVER U135:Y
*CELL scg22d1_hd
*C2_R1_C1 8.215e-03 1.157e-02 8.215e-03 
*LOADS
*RC U551:S 1.901e-04
*RC U549:S 1.901e-04
*END

*R_NET N550 6.890e-03
*DRIVER U554:Y
*CELL or2d1_hd
*C2_R1_C1 3.445e-03 7.940e-03 3.445e-03 
*LOADS
*RC U553:S 5.471e-05
*END

*R_NET N552 1.643e-02
*DRIVER U486:Y
*CELL clknd2d1_hd
*C2_R1_C1 8.215e-03 1.157e-02 8.215e-03 
*LOADS
*RC U778:S 1.901e-04
*RC U776:S 1.901e-04
*END

*R_NET N553 5.190e-03
*DRIVER U125:Y
*CELL oa211d1_hd
*C2_R1_C1 2.595e-03 7.940e-03 2.595e-03 
*LOADS
*RC r_pstate_reg_0_:D 4.121e-05
*END

*R_NET N554 5.190e-03
*DRIVER U775:Y
*CELL clknd2d1_hd
*C2_R1_C1 2.595e-03 7.940e-03 2.595e-03 
*LOADS
*RC r_pstate_reg_1_:D 4.121e-05
*END

*R_NET N556 5.700e-03
*DRIVER U286:Y
*CELL ivd1_hd
*C2_R1_C1 2.850e-03 7.940e-03 2.850e-03 
*LOADS
*RC U116:B 4.526e-05
*END

*R_NET N557 6.890e-03
*DRIVER U116:Y
*CELL or2d1_hd
*C2_R1_C1 3.445e-03 7.940e-03 3.445e-03 
*LOADS
*RC U772:S 5.471e-05
*END

*R_NET N558 6.890e-03
*DRIVER U774:Y
*CELL clknd2d1_hd
*C2_R1_C1 3.445e-03 7.940e-03 3.445e-03 
*LOADS
*RC U773:S 5.471e-05
*END

*R_NET N559 6.890e-03
*DRIVER U557:Y
*CELL ad2d1_hd
*C2_R1_C1 3.445e-03 7.940e-03 3.445e-03 
*LOADS
*RC U556:S 5.471e-05
*END

*R_NET N562 6.540e-03
*DRIVER U181:Y
*CELL ad2d1_hd
*C2_R1_C1 3.270e-03 7.940e-03 3.270e-03 
*LOADS
*RC clk_gate_o_Y_DATA_reg_31_/latch:EN 5.193e-05
*END

*R_NET N563 1.343e-02
*DRIVER U787:Y
*CELL or3d1_hd
*C2_R1_C1 6.715e-03 1.157e-02 6.715e-03 
*LOADS
*RC U182:B 1.554e-04
*RC U289:B 1.554e-04
*END
