*SPEF "IEEE 1481-1999"
*DESIGN "iir_notch"
*DATE "Wed May  6 15:32:59 2020"
*VENDOR "SYNOPSYS INC"
*PROGRAM "Synopsys Design Compiler cmos"
*VERSION "F-2011.09-SP5-3"
*DESIGN_FLOW "SYNTHESIS"
*DIVIDER /
*DELIMITER :
*BUS_DELIMITER []
*T_UNIT 1.0 NS
*C_UNIT 1.0 PF
*R_UNIT 1.0 KOHM
*L_UNIT 1.0 HENRY

*PORTS

i_X_DATA\[31\] I *L 0.000e+00 *S 0.000e+00 0.000e+00 
i_X_DATA\[30\] I *L 0.000e+00 *S 0.000e+00 0.000e+00 
i_X_DATA\[29\] I *L 0.000e+00 *S 0.000e+00 0.000e+00 
i_X_DATA\[28\] I *L 0.000e+00 *S 0.000e+00 0.000e+00 
i_X_DATA\[27\] I *L 0.000e+00 *S 0.000e+00 0.000e+00 
i_X_DATA\[26\] I *L 0.000e+00 *S 0.000e+00 0.000e+00 
i_X_DATA\[25\] I *L 0.000e+00 *S 0.000e+00 0.000e+00 
i_X_DATA\[24\] I *L 0.000e+00 *S 0.000e+00 0.000e+00 
i_X_DATA\[23\] I *L 0.000e+00 *S 0.000e+00 0.000e+00 
i_X_DATA\[22\] I *L 0.000e+00 *S 0.000e+00 0.000e+00 
i_X_DATA\[21\] I *L 0.000e+00 *S 0.000e+00 0.000e+00 
i_X_DATA\[20\] I *L 0.000e+00 *S 0.000e+00 0.000e+00 
i_X_DATA\[19\] I *L 0.000e+00 *S 0.000e+00 0.000e+00 
i_X_DATA\[18\] I *L 0.000e+00 *S 0.000e+00 0.000e+00 
i_X_DATA\[17\] I *L 0.000e+00 *S 0.000e+00 0.000e+00 
i_X_DATA\[16\] I *L 0.000e+00 *S 0.000e+00 0.000e+00 
i_X_DATA\[15\] I *L 0.000e+00 *S 0.000e+00 0.000e+00 
i_X_DATA\[14\] I *L 0.000e+00 *S 0.000e+00 0.000e+00 
i_X_DATA\[13\] I *L 0.000e+00 *S 0.000e+00 0.000e+00 
i_X_DATA\[12\] I *L 0.000e+00 *S 0.000e+00 0.000e+00 
i_X_DATA\[11\] I *L 0.000e+00 *S 0.000e+00 0.000e+00 
i_X_DATA\[10\] I *L 0.000e+00 *S 0.000e+00 0.000e+00 
i_X_DATA\[9\] I *L 0.000e+00 *S 0.000e+00 0.000e+00 
i_X_DATA\[8\] I *L 0.000e+00 *S 0.000e+00 0.000e+00 
i_X_DATA\[7\] I *L 0.000e+00 *S 0.000e+00 0.000e+00 
i_X_DATA\[6\] I *L 0.000e+00 *S 0.000e+00 0.000e+00 
i_X_DATA\[5\] I *L 0.000e+00 *S 0.000e+00 0.000e+00 
i_X_DATA\[4\] I *L 0.000e+00 *S 0.000e+00 0.000e+00 
i_X_DATA\[3\] I *L 0.000e+00 *S 0.000e+00 0.000e+00 
i_X_DATA\[2\] I *L 0.000e+00 *S 0.000e+00 0.000e+00 
i_X_DATA\[1\] I *L 0.000e+00 *S 0.000e+00 0.000e+00 
i_X_DATA\[0\] I *L 0.000e+00 *S 0.000e+00 0.000e+00 
i_X_DATA_VALID I *L 0.000e+00 *S 0.000e+00 0.000e+00 
o_X_DATA_READY O *L 1.035e-02 *S 1.969e-01 1.489e-01 
o_Y_DATA\[31\] O *L 1.035e-02 *S 1.983e-01 2.352e-01 
o_Y_DATA\[30\] O *L 1.035e-02 *S 1.983e-01 2.352e-01 
o_Y_DATA\[29\] O *L 1.035e-02 *S 1.983e-01 2.352e-01 
o_Y_DATA\[28\] O *L 1.035e-02 *S 1.983e-01 2.352e-01 
o_Y_DATA\[27\] O *L 1.035e-02 *S 1.983e-01 2.352e-01 
o_Y_DATA\[26\] O *L 1.035e-02 *S 1.983e-01 2.352e-01 
o_Y_DATA\[25\] O *L 1.035e-02 *S 1.983e-01 2.352e-01 
o_Y_DATA\[24\] O *L 1.035e-02 *S 1.983e-01 2.352e-01 
o_Y_DATA\[23\] O *L 1.035e-02 *S 1.983e-01 2.352e-01 
o_Y_DATA\[22\] O *L 1.035e-02 *S 1.983e-01 2.352e-01 
o_Y_DATA\[21\] O *L 1.035e-02 *S 1.983e-01 2.352e-01 
o_Y_DATA\[20\] O *L 1.035e-02 *S 1.983e-01 2.352e-01 
o_Y_DATA\[19\] O *L 1.035e-02 *S 1.983e-01 2.352e-01 
o_Y_DATA\[18\] O *L 1.035e-02 *S 1.983e-01 2.352e-01 
o_Y_DATA\[17\] O *L 1.035e-02 *S 1.983e-01 2.352e-01 
o_Y_DATA\[16\] O *L 1.035e-02 *S 1.983e-01 2.352e-01 
o_Y_DATA\[15\] O *L 1.035e-02 *S 1.983e-01 2.352e-01 
o_Y_DATA\[14\] O *L 1.035e-02 *S 1.983e-01 2.352e-01 
o_Y_DATA\[13\] O *L 1.035e-02 *S 1.983e-01 2.352e-01 
o_Y_DATA\[12\] O *L 1.035e-02 *S 1.983e-01 2.352e-01 
o_Y_DATA\[11\] O *L 1.035e-02 *S 1.983e-01 2.352e-01 
o_Y_DATA\[10\] O *L 1.035e-02 *S 1.983e-01 2.352e-01 
o_Y_DATA\[9\] O *L 1.035e-02 *S 1.983e-01 2.352e-01 
o_Y_DATA\[8\] O *L 1.035e-02 *S 1.983e-01 2.352e-01 
o_Y_DATA\[7\] O *L 1.035e-02 *S 1.983e-01 2.352e-01 
o_Y_DATA\[6\] O *L 1.035e-02 *S 1.983e-01 2.352e-01 
o_Y_DATA\[5\] O *L 1.035e-02 *S 1.983e-01 2.352e-01 
o_Y_DATA\[4\] O *L 1.035e-02 *S 1.983e-01 2.352e-01 
o_Y_DATA\[3\] O *L 1.035e-02 *S 1.983e-01 2.352e-01 
o_Y_DATA\[2\] O *L 1.035e-02 *S 1.983e-01 2.352e-01 
o_Y_DATA\[1\] O *L 1.035e-02 *S 1.983e-01 2.352e-01 
o_Y_DATA\[0\] O *L 1.035e-02 *S 1.983e-01 2.352e-01 
o_Y_DATA_VALID O *L 1.035e-02 *S 2.460e-01 2.742e-01 
i_Y_ACK I *L 0.000e+00 *S 0.000e+00 0.000e+00 
i_CLK I *L 0.000e+00 *S 0.000e+00 0.000e+00 
i_RSTN I *L 0.000e+00 *S 0.000e+00 0.000e+00 

*R_NET i_X_DATA\[31\] 5.700e-03
*DRIVER i_X_DATA\[31\]
*CELL NULL
*C2_R1_C1 2.850e-03 7.940e-03 2.850e-03 
*LOADS
*RC U1129:B 4.526e-05
*END

*R_NET i_X_DATA\[30\] 5.700e-03
*DRIVER i_X_DATA\[30\]
*CELL NULL
*C2_R1_C1 2.850e-03 7.940e-03 2.850e-03 
*LOADS
*RC U1130:B 4.526e-05
*END

*R_NET i_X_DATA\[29\] 5.700e-03
*DRIVER i_X_DATA\[29\]
*CELL NULL
*C2_R1_C1 2.850e-03 7.940e-03 2.850e-03 
*LOADS
*RC U1131:B 4.526e-05
*END

*R_NET i_X_DATA\[28\] 5.700e-03
*DRIVER i_X_DATA\[28\]
*CELL NULL
*C2_R1_C1 2.850e-03 7.940e-03 2.850e-03 
*LOADS
*RC U1132:B 4.526e-05
*END

*R_NET i_X_DATA\[27\] 5.700e-03
*DRIVER i_X_DATA\[27\]
*CELL NULL
*C2_R1_C1 2.850e-03 7.940e-03 2.850e-03 
*LOADS
*RC U1133:B 4.526e-05
*END

*R_NET i_X_DATA\[26\] 5.700e-03
*DRIVER i_X_DATA\[26\]
*CELL NULL
*C2_R1_C1 2.850e-03 7.940e-03 2.850e-03 
*LOADS
*RC U1134:B 4.526e-05
*END

*R_NET i_X_DATA\[25\] 5.700e-03
*DRIVER i_X_DATA\[25\]
*CELL NULL
*C2_R1_C1 2.850e-03 7.940e-03 2.850e-03 
*LOADS
*RC U1135:B 4.526e-05
*END

*R_NET i_X_DATA\[24\] 5.700e-03
*DRIVER i_X_DATA\[24\]
*CELL NULL
*C2_R1_C1 2.850e-03 7.940e-03 2.850e-03 
*LOADS
*RC U1136:B 4.526e-05
*END

*R_NET i_X_DATA\[23\] 5.700e-03
*DRIVER i_X_DATA\[23\]
*CELL NULL
*C2_R1_C1 2.850e-03 7.940e-03 2.850e-03 
*LOADS
*RC U1137:B 4.526e-05
*END

*R_NET i_X_DATA\[22\] 5.700e-03
*DRIVER i_X_DATA\[22\]
*CELL NULL
*C2_R1_C1 2.850e-03 7.940e-03 2.850e-03 
*LOADS
*RC U1138:B 4.526e-05
*END

*R_NET i_X_DATA\[21\] 5.700e-03
*DRIVER i_X_DATA\[21\]
*CELL NULL
*C2_R1_C1 2.850e-03 7.940e-03 2.850e-03 
*LOADS
*RC U1139:B 4.526e-05
*END

*R_NET i_X_DATA\[20\] 5.700e-03
*DRIVER i_X_DATA\[20\]
*CELL NULL
*C2_R1_C1 2.850e-03 7.940e-03 2.850e-03 
*LOADS
*RC U1140:B 4.526e-05
*END

*R_NET i_X_DATA\[19\] 5.700e-03
*DRIVER i_X_DATA\[19\]
*CELL NULL
*C2_R1_C1 2.850e-03 7.940e-03 2.850e-03 
*LOADS
*RC U1141:B 4.526e-05
*END

*R_NET i_X_DATA\[18\] 5.700e-03
*DRIVER i_X_DATA\[18\]
*CELL NULL
*C2_R1_C1 2.850e-03 7.940e-03 2.850e-03 
*LOADS
*RC U1142:B 4.526e-05
*END

*R_NET i_X_DATA\[17\] 5.700e-03
*DRIVER i_X_DATA\[17\]
*CELL NULL
*C2_R1_C1 2.850e-03 7.940e-03 2.850e-03 
*LOADS
*RC U1143:B 4.526e-05
*END

*R_NET i_X_DATA\[16\] 5.700e-03
*DRIVER i_X_DATA\[16\]
*CELL NULL
*C2_R1_C1 2.850e-03 7.940e-03 2.850e-03 
*LOADS
*RC U1144:B 4.526e-05
*END

*R_NET i_X_DATA\[15\] 5.700e-03
*DRIVER i_X_DATA\[15\]
*CELL NULL
*C2_R1_C1 2.850e-03 7.940e-03 2.850e-03 
*LOADS
*RC U1145:B 4.526e-05
*END

*R_NET i_X_DATA\[14\] 5.700e-03
*DRIVER i_X_DATA\[14\]
*CELL NULL
*C2_R1_C1 2.850e-03 7.940e-03 2.850e-03 
*LOADS
*RC U1146:B 4.526e-05
*END

*R_NET i_X_DATA\[13\] 5.700e-03
*DRIVER i_X_DATA\[13\]
*CELL NULL
*C2_R1_C1 2.850e-03 7.940e-03 2.850e-03 
*LOADS
*RC U1147:B 4.526e-05
*END

*R_NET i_X_DATA\[12\] 5.700e-03
*DRIVER i_X_DATA\[12\]
*CELL NULL
*C2_R1_C1 2.850e-03 7.940e-03 2.850e-03 
*LOADS
*RC U1148:B 4.526e-05
*END

*R_NET i_X_DATA\[11\] 5.700e-03
*DRIVER i_X_DATA\[11\]
*CELL NULL
*C2_R1_C1 2.850e-03 7.940e-03 2.850e-03 
*LOADS
*RC U1149:B 4.526e-05
*END

*R_NET i_X_DATA\[10\] 5.700e-03
*DRIVER i_X_DATA\[10\]
*CELL NULL
*C2_R1_C1 2.850e-03 7.940e-03 2.850e-03 
*LOADS
*RC U1150:B 4.526e-05
*END

*R_NET i_X_DATA\[9\] 5.700e-03
*DRIVER i_X_DATA\[9\]
*CELL NULL
*C2_R1_C1 2.850e-03 7.940e-03 2.850e-03 
*LOADS
*RC U1151:B 4.526e-05
*END

*R_NET i_X_DATA\[8\] 5.700e-03
*DRIVER i_X_DATA\[8\]
*CELL NULL
*C2_R1_C1 2.850e-03 7.940e-03 2.850e-03 
*LOADS
*RC U1152:B 4.526e-05
*END

*R_NET i_X_DATA\[7\] 5.700e-03
*DRIVER i_X_DATA\[7\]
*CELL NULL
*C2_R1_C1 2.850e-03 7.940e-03 2.850e-03 
*LOADS
*RC U1153:B 4.526e-05
*END

*R_NET i_X_DATA\[6\] 5.700e-03
*DRIVER i_X_DATA\[6\]
*CELL NULL
*C2_R1_C1 2.850e-03 7.940e-03 2.850e-03 
*LOADS
*RC U1154:B 4.526e-05
*END

*R_NET i_X_DATA\[5\] 5.700e-03
*DRIVER i_X_DATA\[5\]
*CELL NULL
*C2_R1_C1 2.850e-03 7.940e-03 2.850e-03 
*LOADS
*RC U1155:B 4.526e-05
*END

*R_NET i_X_DATA\[4\] 5.700e-03
*DRIVER i_X_DATA\[4\]
*CELL NULL
*C2_R1_C1 2.850e-03 7.940e-03 2.850e-03 
*LOADS
*RC U1156:B 4.526e-05
*END

*R_NET i_X_DATA\[3\] 5.700e-03
*DRIVER i_X_DATA\[3\]
*CELL NULL
*C2_R1_C1 2.850e-03 7.940e-03 2.850e-03 
*LOADS
*RC U1157:B 4.526e-05
*END

*R_NET i_X_DATA\[2\] 5.700e-03
*DRIVER i_X_DATA\[2\]
*CELL NULL
*C2_R1_C1 2.850e-03 7.940e-03 2.850e-03 
*LOADS
*RC U1158:B 4.526e-05
*END

*R_NET i_X_DATA\[1\] 5.700e-03
*DRIVER i_X_DATA\[1\]
*CELL NULL
*C2_R1_C1 2.850e-03 7.940e-03 2.850e-03 
*LOADS
*RC U1159:B 4.526e-05
*END

*R_NET i_X_DATA\[0\] 5.700e-03
*DRIVER i_X_DATA\[0\]
*CELL NULL
*C2_R1_C1 2.850e-03 7.940e-03 2.850e-03 
*LOADS
*RC U1160:B 4.526e-05
*END

*R_NET i_X_DATA_VALID 5.700e-03
*DRIVER i_X_DATA_VALID
*CELL NULL
*C2_R1_C1 2.850e-03 7.940e-03 2.850e-03 
*LOADS
*RC U1127:B 4.526e-05
*END

*R_NET o_X_DATA_READY 2.237e-02
*DRIVER o_X_DATA_READY_reg:Q
*CELL fd1eqd1_hd
*C2_R1_C1 1.118e-02 1.157e-02 1.118e-02 
*LOADS
*RC U1127:A 2.588e-04
*RC o_X_DATA_READY 2.588e-04
*END

*R_NET o_Y_DATA\[31\] 2.239e-02
*DRIVER o_Y_DATA_reg_31_:Q
*CELL fd2qd1_hd
*C2_R1_C1 1.120e-02 1.157e-02 1.120e-02 
*LOADS
*RC U1621:A 2.591e-04
*RC o_Y_DATA\[31\] 2.591e-04
*END

*R_NET o_Y_DATA\[30\] 2.239e-02
*DRIVER o_Y_DATA_reg_30_:Q
*CELL fd2qd1_hd
*C2_R1_C1 1.120e-02 1.157e-02 1.120e-02 
*LOADS
*RC U1625:A 2.591e-04
*RC o_Y_DATA\[30\] 2.591e-04
*END

*R_NET o_Y_DATA\[29\] 2.239e-02
*DRIVER o_Y_DATA_reg_29_:Q
*CELL fd2qd1_hd
*C2_R1_C1 1.120e-02 1.157e-02 1.120e-02 
*LOADS
*RC U1627:A 2.591e-04
*RC o_Y_DATA\[29\] 2.591e-04
*END

*R_NET o_Y_DATA\[28\] 2.239e-02
*DRIVER o_Y_DATA_reg_28_:Q
*CELL fd2qd1_hd
*C2_R1_C1 1.120e-02 1.157e-02 1.120e-02 
*LOADS
*RC U1614:A 2.591e-04
*RC o_Y_DATA\[28\] 2.591e-04
*END

*R_NET o_Y_DATA\[27\] 2.239e-02
*DRIVER o_Y_DATA_reg_27_:Q
*CELL fd2qd1_hd
*C2_R1_C1 1.120e-02 1.157e-02 1.120e-02 
*LOADS
*RC U1617:A 2.591e-04
*RC o_Y_DATA\[27\] 2.591e-04
*END

*R_NET o_Y_DATA\[26\] 2.239e-02
*DRIVER o_Y_DATA_reg_26_:Q
*CELL fd2qd1_hd
*C2_R1_C1 1.120e-02 1.157e-02 1.120e-02 
*LOADS
*RC U1616:A 2.591e-04
*RC o_Y_DATA\[26\] 2.591e-04
*END

*R_NET o_Y_DATA\[25\] 2.239e-02
*DRIVER o_Y_DATA_reg_25_:Q
*CELL fd2qd1_hd
*C2_R1_C1 1.120e-02 1.157e-02 1.120e-02 
*LOADS
*RC U1615:A 2.591e-04
*RC o_Y_DATA\[25\] 2.591e-04
*END

*R_NET o_Y_DATA\[24\] 2.239e-02
*DRIVER o_Y_DATA_reg_24_:Q
*CELL fd2qd1_hd
*C2_R1_C1 1.120e-02 1.157e-02 1.120e-02 
*LOADS
*RC U1624:A 2.591e-04
*RC o_Y_DATA\[24\] 2.591e-04
*END

*R_NET o_Y_DATA\[23\] 2.239e-02
*DRIVER o_Y_DATA_reg_23_:Q
*CELL fd2qd1_hd
*C2_R1_C1 1.120e-02 1.157e-02 1.120e-02 
*LOADS
*RC U1626:A 2.591e-04
*RC o_Y_DATA\[23\] 2.591e-04
*END

*R_NET o_Y_DATA\[22\] 2.239e-02
*DRIVER o_Y_DATA_reg_22_:Q
*CELL fd2qd1_hd
*C2_R1_C1 1.120e-02 1.157e-02 1.120e-02 
*LOADS
*RC U1651:A 2.591e-04
*RC o_Y_DATA\[22\] 2.591e-04
*END

*R_NET o_Y_DATA\[21\] 2.239e-02
*DRIVER o_Y_DATA_reg_21_:Q
*CELL fd2qd1_hd
*C2_R1_C1 1.120e-02 1.157e-02 1.120e-02 
*LOADS
*RC U1652:A 2.591e-04
*RC o_Y_DATA\[21\] 2.591e-04
*END

*R_NET o_Y_DATA\[20\] 2.239e-02
*DRIVER o_Y_DATA_reg_20_:Q
*CELL fd2qd1_hd
*C2_R1_C1 1.120e-02 1.157e-02 1.120e-02 
*LOADS
*RC U1650:A 2.591e-04
*RC o_Y_DATA\[20\] 2.591e-04
*END

*R_NET o_Y_DATA\[19\] 2.239e-02
*DRIVER o_Y_DATA_reg_19_:Q
*CELL fd2qd1_hd
*C2_R1_C1 1.120e-02 1.157e-02 1.120e-02 
*LOADS
*RC U1655:A 2.591e-04
*RC o_Y_DATA\[19\] 2.591e-04
*END

*R_NET o_Y_DATA\[18\] 2.239e-02
*DRIVER o_Y_DATA_reg_18_:Q
*CELL fd2qd1_hd
*C2_R1_C1 1.120e-02 1.157e-02 1.120e-02 
*LOADS
*RC U1660:A 2.591e-04
*RC o_Y_DATA\[18\] 2.591e-04
*END

*R_NET o_Y_DATA\[17\] 2.239e-02
*DRIVER o_Y_DATA_reg_17_:Q
*CELL fd2qd1_hd
*C2_R1_C1 1.120e-02 1.157e-02 1.120e-02 
*LOADS
*RC U1659:A 2.591e-04
*RC o_Y_DATA\[17\] 2.591e-04
*END

*R_NET o_Y_DATA\[16\] 2.239e-02
*DRIVER o_Y_DATA_reg_16_:Q
*CELL fd2qd1_hd
*C2_R1_C1 1.120e-02 1.157e-02 1.120e-02 
*LOADS
*RC U1608:A 2.591e-04
*RC o_Y_DATA\[16\] 2.591e-04
*END

*R_NET o_Y_DATA\[15\] 2.239e-02
*DRIVER o_Y_DATA_reg_15_:Q
*CELL fd2qd1_hd
*C2_R1_C1 1.120e-02 1.157e-02 1.120e-02 
*LOADS
*RC U1607:A 2.591e-04
*RC o_Y_DATA\[15\] 2.591e-04
*END

*R_NET o_Y_DATA\[14\] 2.239e-02
*DRIVER o_Y_DATA_reg_14_:Q
*CELL fd2qd1_hd
*C2_R1_C1 1.120e-02 1.157e-02 1.120e-02 
*LOADS
*RC U1605:A 2.591e-04
*RC o_Y_DATA\[14\] 2.591e-04
*END

*R_NET o_Y_DATA\[13\] 2.239e-02
*DRIVER o_Y_DATA_reg_13_:Q
*CELL fd2qd1_hd
*C2_R1_C1 1.120e-02 1.157e-02 1.120e-02 
*LOADS
*RC U1606:A 2.591e-04
*RC o_Y_DATA\[13\] 2.591e-04
*END

*R_NET o_Y_DATA\[12\] 2.239e-02
*DRIVER o_Y_DATA_reg_12_:Q
*CELL fd2qd1_hd
*C2_R1_C1 1.120e-02 1.157e-02 1.120e-02 
*LOADS
*RC U1603:A 2.591e-04
*RC o_Y_DATA\[12\] 2.591e-04
*END

*R_NET o_Y_DATA\[11\] 2.239e-02
*DRIVER o_Y_DATA_reg_11_:Q
*CELL fd2qd1_hd
*C2_R1_C1 1.120e-02 1.157e-02 1.120e-02 
*LOADS
*RC U1604:A 2.591e-04
*RC o_Y_DATA\[11\] 2.591e-04
*END

*R_NET o_Y_DATA\[10\] 2.239e-02
*DRIVER o_Y_DATA_reg_10_:Q
*CELL fd2qd1_hd
*C2_R1_C1 1.120e-02 1.157e-02 1.120e-02 
*LOADS
*RC U1654:A 2.591e-04
*RC o_Y_DATA\[10\] 2.591e-04
*END

*R_NET o_Y_DATA\[9\] 2.239e-02
*DRIVER o_Y_DATA_reg_9_:Q
*CELL fd2qd1_hd
*C2_R1_C1 1.120e-02 1.157e-02 1.120e-02 
*LOADS
*RC U1649:A 2.591e-04
*RC o_Y_DATA\[9\] 2.591e-04
*END

*R_NET o_Y_DATA\[8\] 2.239e-02
*DRIVER o_Y_DATA_reg_8_:Q
*CELL fd2qd1_hd
*C2_R1_C1 1.120e-02 1.157e-02 1.120e-02 
*LOADS
*RC U1656:A 2.591e-04
*RC o_Y_DATA\[8\] 2.591e-04
*END

*R_NET o_Y_DATA\[7\] 2.239e-02
*DRIVER o_Y_DATA_reg_7_:Q
*CELL fd2qd1_hd
*C2_R1_C1 1.120e-02 1.157e-02 1.120e-02 
*LOADS
*RC U1653:A 2.591e-04
*RC o_Y_DATA\[7\] 2.591e-04
*END

*R_NET o_Y_DATA\[6\] 2.239e-02
*DRIVER o_Y_DATA_reg_6_:Q
*CELL fd2qd1_hd
*C2_R1_C1 1.120e-02 1.157e-02 1.120e-02 
*LOADS
*RC U1657:A 2.591e-04
*RC o_Y_DATA\[6\] 2.591e-04
*END

*R_NET o_Y_DATA\[5\] 2.239e-02
*DRIVER o_Y_DATA_reg_5_:Q
*CELL fd2qd1_hd
*C2_R1_C1 1.120e-02 1.157e-02 1.120e-02 
*LOADS
*RC U1658:A 2.591e-04
*RC o_Y_DATA\[5\] 2.591e-04
*END

*R_NET o_Y_DATA\[4\] 2.239e-02
*DRIVER o_Y_DATA_reg_4_:Q
*CELL fd2qd1_hd
*C2_R1_C1 1.120e-02 1.157e-02 1.120e-02 
*LOADS
*RC U1620:A 2.591e-04
*RC o_Y_DATA\[4\] 2.591e-04
*END

*R_NET o_Y_DATA\[3\] 2.239e-02
*DRIVER o_Y_DATA_reg_3_:Q
*CELL fd2qd1_hd
*C2_R1_C1 1.120e-02 1.157e-02 1.120e-02 
*LOADS
*RC U1622:A 2.591e-04
*RC o_Y_DATA\[3\] 2.591e-04
*END

*R_NET o_Y_DATA\[2\] 2.239e-02
*DRIVER o_Y_DATA_reg_2_:Q
*CELL fd2qd1_hd
*C2_R1_C1 1.120e-02 1.157e-02 1.120e-02 
*LOADS
*RC U1623:A 2.591e-04
*RC o_Y_DATA\[2\] 2.591e-04
*END

*R_NET o_Y_DATA\[1\] 2.239e-02
*DRIVER o_Y_DATA_reg_1_:Q
*CELL fd2qd1_hd
*C2_R1_C1 1.120e-02 1.157e-02 1.120e-02 
*LOADS
*RC U1618:A 2.591e-04
*RC o_Y_DATA\[1\] 2.591e-04
*END

*R_NET o_Y_DATA\[0\] 2.239e-02
*DRIVER o_Y_DATA_reg_0_:Q
*CELL fd2qd1_hd
*C2_R1_C1 1.120e-02 1.157e-02 1.120e-02 
*LOADS
*RC U1619:A 2.591e-04
*RC o_Y_DATA\[0\] 2.591e-04
*END

*R_NET o_Y_DATA_VALID 2.832e-02
*DRIVER o_Y_DATA_VALID_reg:Q
*CELL fd2qd1_hd
*C2_R1_C1 1.416e-02 1.366e-02 1.416e-02 
*LOADS
*RC U1788:B 3.869e-04
*RC U2059:C 3.869e-04
*RC o_Y_DATA_VALID 3.869e-04
*END

*R_NET i_Y_ACK 5.240e-03
*DRIVER i_Y_ACK
*CELL NULL
*C2_R1_C1 2.620e-03 7.940e-03 2.620e-03 
*LOADS
*RC U1788:A 4.161e-05
*END

*R_NET w_add_1_AB_ACK 1.979e-02
*DRIVER add_1/o_AB_ACK_reg:Q
*CELL fd1qd1_hd
*C2_R1_C1 9.895e-03 1.366e-02 9.895e-03 
*LOADS
*RC add_1/U865:B 2.703e-04
*RC add_1/U426:A 2.703e-04
*RC U1754:C 2.703e-04
*END

*R_NET w_add_2_AB_ACK 1.975e-02
*DRIVER add_2/o_AB_ACK_reg:Q
*CELL fd1qd1_hd
*C2_R1_C1 9.875e-03 1.366e-02 9.875e-03 
*LOADS
*RC add_2/U865:B 2.698e-04
*RC add_2/U426:A 2.698e-04
*RC U1754:A 2.698e-04
*END

*R_NET w_add_1_Z_STB 3.928e-02
*DRIVER add_1/o_Z_STB_reg:Q
*CELL fd1qd1_hd
*C2_R1_C1 1.964e-02 1.956e-02 1.964e-02 
*LOADS
*RC add_1/U703:A 7.683e-04
*RC add_1/U1111:B 7.683e-04
*RC U933:A 7.683e-04
*RC U934:A 7.683e-04
*RC U1755:A 7.683e-04
*END

*R_NET w_add_2_Z_STB 3.197e-02
*DRIVER add_2/o_Z_STB_reg:Q
*CELL fd1qd1_hd
*C2_R1_C1 1.599e-02 1.824e-02 1.599e-02 
*LOADS
*RC add_2/U703:A 5.831e-04
*RC add_2/U1111:B 5.831e-04
*RC U934:B 5.831e-04
*RC U1755:B 5.831e-04
*END

*R_NET r_add_1_A\[31\] 1.400e-02
*DRIVER r_add_1_A_reg_31_:Q
*CELL fd2qd1_hd
*C2_R1_C1 7.000e-03 1.157e-02 7.000e-03 
*LOADS
*RC U1793:C 1.620e-04
*RC add_1/a_reg_31_:D 1.620e-04
*END

*R_NET r_add_1_A\[30\] 1.400e-02
*DRIVER r_add_1_A_reg_30_:Q
*CELL fd2qd1_hd
*C2_R1_C1 7.000e-03 1.157e-02 7.000e-03 
*LOADS
*RC U1930:C 1.620e-04
*RC add_1/a_reg_30_:D 1.620e-04
*END

*R_NET r_add_1_A\[29\] 1.400e-02
*DRIVER r_add_1_A_reg_29_:Q
*CELL fd2qd1_hd
*C2_R1_C1 7.000e-03 1.157e-02 7.000e-03 
*LOADS
*RC U1927:C 1.620e-04
*RC add_1/a_reg_29_:D 1.620e-04
*END

*R_NET r_add_1_A\[28\] 1.400e-02
*DRIVER r_add_1_A_reg_28_:Q
*CELL fd2qd1_hd
*C2_R1_C1 7.000e-03 1.157e-02 7.000e-03 
*LOADS
*RC U1924:C 1.620e-04
*RC add_1/a_reg_28_:D 1.620e-04
*END

*R_NET r_add_1_A\[27\] 1.400e-02
*DRIVER r_add_1_A_reg_27_:Q
*CELL fd2qd1_hd
*C2_R1_C1 7.000e-03 1.157e-02 7.000e-03 
*LOADS
*RC U1921:C 1.620e-04
*RC add_1/a_reg_27_:D 1.620e-04
*END

*R_NET r_add_1_A\[26\] 1.400e-02
*DRIVER r_add_1_A_reg_26_:Q
*CELL fd2qd1_hd
*C2_R1_C1 7.000e-03 1.157e-02 7.000e-03 
*LOADS
*RC U1918:C 1.620e-04
*RC add_1/a_reg_26_:D 1.620e-04
*END

*R_NET r_add_1_A\[25\] 1.400e-02
*DRIVER r_add_1_A_reg_25_:Q
*CELL fd2qd1_hd
*C2_R1_C1 7.000e-03 1.157e-02 7.000e-03 
*LOADS
*RC U1915:C 1.620e-04
*RC add_1/a_reg_25_:D 1.620e-04
*END

*R_NET r_add_1_A\[24\] 1.400e-02
*DRIVER r_add_1_A_reg_24_:Q
*CELL fd2qd1_hd
*C2_R1_C1 7.000e-03 1.157e-02 7.000e-03 
*LOADS
*RC U1912:C 1.620e-04
*RC add_1/a_reg_24_:D 1.620e-04
*END

*R_NET r_add_1_A\[23\] 1.400e-02
*DRIVER r_add_1_A_reg_23_:Q
*CELL fd2qd1_hd
*C2_R1_C1 7.000e-03 1.157e-02 7.000e-03 
*LOADS
*RC U1909:C 1.620e-04
*RC add_1/a_reg_23_:D 1.620e-04
*END

*R_NET r_add_1_A\[22\] 1.400e-02
*DRIVER r_add_1_A_reg_22_:Q
*CELL fd2qd1_hd
*C2_R1_C1 7.000e-03 1.157e-02 7.000e-03 
*LOADS
*RC U1906:C 1.620e-04
*RC add_1/a_reg_22_:D 1.620e-04
*END

*R_NET r_add_1_A\[21\] 1.400e-02
*DRIVER r_add_1_A_reg_21_:Q
*CELL fd2qd1_hd
*C2_R1_C1 7.000e-03 1.157e-02 7.000e-03 
*LOADS
*RC U1903:C 1.620e-04
*RC add_1/a_reg_21_:D 1.620e-04
*END

*R_NET r_add_1_A\[20\] 1.400e-02
*DRIVER r_add_1_A_reg_20_:Q
*CELL fd2qd1_hd
*C2_R1_C1 7.000e-03 1.157e-02 7.000e-03 
*LOADS
*RC U1900:C 1.620e-04
*RC add_1/a_reg_20_:D 1.620e-04
*END

*R_NET r_add_1_A\[19\] 1.400e-02
*DRIVER r_add_1_A_reg_19_:Q
*CELL fd2qd1_hd
*C2_R1_C1 7.000e-03 1.157e-02 7.000e-03 
*LOADS
*RC U1897:C 1.620e-04
*RC add_1/a_reg_19_:D 1.620e-04
*END

*R_NET r_add_1_A\[18\] 1.400e-02
*DRIVER r_add_1_A_reg_18_:Q
*CELL fd2qd1_hd
*C2_R1_C1 7.000e-03 1.157e-02 7.000e-03 
*LOADS
*RC U1894:C 1.620e-04
*RC add_1/a_reg_18_:D 1.620e-04
*END

*R_NET r_add_1_A\[17\] 1.400e-02
*DRIVER r_add_1_A_reg_17_:Q
*CELL fd2qd1_hd
*C2_R1_C1 7.000e-03 1.157e-02 7.000e-03 
*LOADS
*RC U1891:C 1.620e-04
*RC add_1/a_reg_17_:D 1.620e-04
*END

*R_NET r_add_1_A\[16\] 1.400e-02
*DRIVER r_add_1_A_reg_16_:Q
*CELL fd2qd1_hd
*C2_R1_C1 7.000e-03 1.157e-02 7.000e-03 
*LOADS
*RC U1888:C 1.620e-04
*RC add_1/a_reg_16_:D 1.620e-04
*END

*R_NET r_add_1_A\[15\] 1.400e-02
*DRIVER r_add_1_A_reg_15_:Q
*CELL fd2qd1_hd
*C2_R1_C1 7.000e-03 1.157e-02 7.000e-03 
*LOADS
*RC U1885:C 1.620e-04
*RC add_1/a_reg_15_:D 1.620e-04
*END

*R_NET r_add_1_A\[14\] 1.400e-02
*DRIVER r_add_1_A_reg_14_:Q
*CELL fd2qd1_hd
*C2_R1_C1 7.000e-03 1.157e-02 7.000e-03 
*LOADS
*RC U1882:C 1.620e-04
*RC add_1/a_reg_14_:D 1.620e-04
*END

*R_NET r_add_1_A\[13\] 1.400e-02
*DRIVER r_add_1_A_reg_13_:Q
*CELL fd2qd1_hd
*C2_R1_C1 7.000e-03 1.157e-02 7.000e-03 
*LOADS
*RC U1879:C 1.620e-04
*RC add_1/a_reg_13_:D 1.620e-04
*END

*R_NET r_add_1_A\[12\] 1.400e-02
*DRIVER r_add_1_A_reg_12_:Q
*CELL fd2qd1_hd
*C2_R1_C1 7.000e-03 1.157e-02 7.000e-03 
*LOADS
*RC U1876:C 1.620e-04
*RC add_1/a_reg_12_:D 1.620e-04
*END

*R_NET r_add_1_A\[11\] 1.400e-02
*DRIVER r_add_1_A_reg_11_:Q
*CELL fd2qd1_hd
*C2_R1_C1 7.000e-03 1.157e-02 7.000e-03 
*LOADS
*RC U1873:C 1.620e-04
*RC add_1/a_reg_11_:D 1.620e-04
*END

*R_NET r_add_1_A\[10\] 1.400e-02
*DRIVER r_add_1_A_reg_10_:Q
*CELL fd2qd1_hd
*C2_R1_C1 7.000e-03 1.157e-02 7.000e-03 
*LOADS
*RC U1870:C 1.620e-04
*RC add_1/a_reg_10_:D 1.620e-04
*END

*R_NET r_add_1_A\[9\] 1.400e-02
*DRIVER r_add_1_A_reg_9_:Q
*CELL fd2qd1_hd
*C2_R1_C1 7.000e-03 1.157e-02 7.000e-03 
*LOADS
*RC U1867:C 1.620e-04
*RC add_1/a_reg_9_:D 1.620e-04
*END

*R_NET r_add_1_A\[8\] 1.400e-02
*DRIVER r_add_1_A_reg_8_:Q
*CELL fd2qd1_hd
*C2_R1_C1 7.000e-03 1.157e-02 7.000e-03 
*LOADS
*RC U1864:C 1.620e-04
*RC add_1/a_reg_8_:D 1.620e-04
*END

*R_NET r_add_1_A\[7\] 1.400e-02
*DRIVER r_add_1_A_reg_7_:Q
*CELL fd2qd1_hd
*C2_R1_C1 7.000e-03 1.157e-02 7.000e-03 
*LOADS
*RC U1861:C 1.620e-04
*RC add_1/a_reg_7_:D 1.620e-04
*END

*R_NET r_add_1_A\[6\] 1.400e-02
*DRIVER r_add_1_A_reg_6_:Q
*CELL fd2qd1_hd
*C2_R1_C1 7.000e-03 1.157e-02 7.000e-03 
*LOADS
*RC U1858:C 1.620e-04
*RC add_1/a_reg_6_:D 1.620e-04
*END

*R_NET r_add_1_A\[5\] 1.400e-02
*DRIVER r_add_1_A_reg_5_:Q
*CELL fd2qd1_hd
*C2_R1_C1 7.000e-03 1.157e-02 7.000e-03 
*LOADS
*RC U1855:C 1.620e-04
*RC add_1/a_reg_5_:D 1.620e-04
*END

*R_NET r_add_1_A\[4\] 1.400e-02
*DRIVER r_add_1_A_reg_4_:Q
*CELL fd2qd1_hd
*C2_R1_C1 7.000e-03 1.157e-02 7.000e-03 
*LOADS
*RC U1852:C 1.620e-04
*RC add_1/a_reg_4_:D 1.620e-04
*END

*R_NET r_add_1_A\[3\] 1.400e-02
*DRIVER r_add_1_A_reg_3_:Q
*CELL fd2qd1_hd
*C2_R1_C1 7.000e-03 1.157e-02 7.000e-03 
*LOADS
*RC U1849:C 1.620e-04
*RC add_1/a_reg_3_:D 1.620e-04
*END

*R_NET r_add_1_A\[2\] 1.400e-02
*DRIVER r_add_1_A_reg_2_:Q
*CELL fd2qd1_hd
*C2_R1_C1 7.000e-03 1.157e-02 7.000e-03 
*LOADS
*RC U1846:C 1.620e-04
*RC add_1/a_reg_2_:D 1.620e-04
*END

*R_NET r_add_1_A\[1\] 1.400e-02
*DRIVER r_add_1_A_reg_1_:Q
*CELL fd2qd1_hd
*C2_R1_C1 7.000e-03 1.157e-02 7.000e-03 
*LOADS
*RC U1843:C 1.620e-04
*RC add_1/a_reg_1_:D 1.620e-04
*END

*R_NET r_add_1_A\[0\] 1.400e-02
*DRIVER r_add_1_A_reg_0_:Q
*CELL fd2qd1_hd
*C2_R1_C1 7.000e-03 1.157e-02 7.000e-03 
*LOADS
*RC U1840:C 1.620e-04
*RC add_1/a_reg_0_:D 1.620e-04
*END

*R_NET r_add_1_B\[31\] 1.291e-02
*DRIVER r_add_1_B_reg_31_:Q
*CELL fd2qd1_hd
*C2_R1_C1 6.455e-03 1.157e-02 6.455e-03 
*LOADS
*RC U2123:D 1.494e-04
*RC add_1/b_reg_31_:D 1.494e-04
*END

*R_NET r_add_1_B\[30\] 1.291e-02
*DRIVER r_add_1_B_reg_30_:Q
*CELL fd2qd1_hd
*C2_R1_C1 6.455e-03 1.157e-02 6.455e-03 
*LOADS
*RC U2122:D 1.494e-04
*RC add_1/b_reg_30_:D 1.494e-04
*END

*R_NET r_add_1_B\[29\] 1.291e-02
*DRIVER r_add_1_B_reg_29_:Q
*CELL fd2qd1_hd
*C2_R1_C1 6.455e-03 1.157e-02 6.455e-03 
*LOADS
*RC U2121:D 1.494e-04
*RC add_1/b_reg_29_:D 1.494e-04
*END

*R_NET r_add_1_B\[28\] 1.291e-02
*DRIVER r_add_1_B_reg_28_:Q
*CELL fd2qd1_hd
*C2_R1_C1 6.455e-03 1.157e-02 6.455e-03 
*LOADS
*RC U2120:D 1.494e-04
*RC add_1/b_reg_28_:D 1.494e-04
*END

*R_NET r_add_1_B\[27\] 1.291e-02
*DRIVER r_add_1_B_reg_27_:Q
*CELL fd2qd1_hd
*C2_R1_C1 6.455e-03 1.157e-02 6.455e-03 
*LOADS
*RC U2119:D 1.494e-04
*RC add_1/b_reg_27_:D 1.494e-04
*END

*R_NET r_add_1_B\[26\] 1.291e-02
*DRIVER r_add_1_B_reg_26_:Q
*CELL fd2qd1_hd
*C2_R1_C1 6.455e-03 1.157e-02 6.455e-03 
*LOADS
*RC U2118:D 1.494e-04
*RC add_1/b_reg_26_:D 1.494e-04
*END

*R_NET r_add_1_B\[25\] 1.291e-02
*DRIVER r_add_1_B_reg_25_:Q
*CELL fd2qd1_hd
*C2_R1_C1 6.455e-03 1.157e-02 6.455e-03 
*LOADS
*RC U2117:D 1.494e-04
*RC add_1/b_reg_25_:D 1.494e-04
*END

*R_NET r_add_1_B\[24\] 1.291e-02
*DRIVER r_add_1_B_reg_24_:Q
*CELL fd2qd1_hd
*C2_R1_C1 6.455e-03 1.157e-02 6.455e-03 
*LOADS
*RC U2116:D 1.494e-04
*RC add_1/b_reg_24_:D 1.494e-04
*END

*R_NET r_add_1_B\[23\] 1.291e-02
*DRIVER r_add_1_B_reg_23_:Q
*CELL fd2qd1_hd
*C2_R1_C1 6.455e-03 1.157e-02 6.455e-03 
*LOADS
*RC U2115:D 1.494e-04
*RC add_1/b_reg_23_:D 1.494e-04
*END

*R_NET r_add_1_B\[22\] 1.291e-02
*DRIVER r_add_1_B_reg_22_:Q
*CELL fd2qd1_hd
*C2_R1_C1 6.455e-03 1.157e-02 6.455e-03 
*LOADS
*RC U2114:D 1.494e-04
*RC add_1/b_reg_22_:D 1.494e-04
*END

*R_NET r_add_1_B\[21\] 1.291e-02
*DRIVER r_add_1_B_reg_21_:Q
*CELL fd2qd1_hd
*C2_R1_C1 6.455e-03 1.157e-02 6.455e-03 
*LOADS
*RC U2113:D 1.494e-04
*RC add_1/b_reg_21_:D 1.494e-04
*END

*R_NET r_add_1_B\[20\] 1.291e-02
*DRIVER r_add_1_B_reg_20_:Q
*CELL fd2qd1_hd
*C2_R1_C1 6.455e-03 1.157e-02 6.455e-03 
*LOADS
*RC U2112:D 1.494e-04
*RC add_1/b_reg_20_:D 1.494e-04
*END

*R_NET r_add_1_B\[19\] 1.291e-02
*DRIVER r_add_1_B_reg_19_:Q
*CELL fd2qd1_hd
*C2_R1_C1 6.455e-03 1.157e-02 6.455e-03 
*LOADS
*RC U2111:D 1.494e-04
*RC add_1/b_reg_19_:D 1.494e-04
*END

*R_NET r_add_1_B\[18\] 1.291e-02
*DRIVER r_add_1_B_reg_18_:Q
*CELL fd2qd1_hd
*C2_R1_C1 6.455e-03 1.157e-02 6.455e-03 
*LOADS
*RC U2110:D 1.494e-04
*RC add_1/b_reg_18_:D 1.494e-04
*END

*R_NET r_add_1_B\[17\] 1.291e-02
*DRIVER r_add_1_B_reg_17_:Q
*CELL fd2qd1_hd
*C2_R1_C1 6.455e-03 1.157e-02 6.455e-03 
*LOADS
*RC U2109:D 1.494e-04
*RC add_1/b_reg_17_:D 1.494e-04
*END

*R_NET r_add_1_B\[16\] 1.291e-02
*DRIVER r_add_1_B_reg_16_:Q
*CELL fd2qd1_hd
*C2_R1_C1 6.455e-03 1.157e-02 6.455e-03 
*LOADS
*RC U2108:D 1.494e-04
*RC add_1/b_reg_16_:D 1.494e-04
*END

*R_NET r_add_1_B\[15\] 1.291e-02
*DRIVER r_add_1_B_reg_15_:Q
*CELL fd2qd1_hd
*C2_R1_C1 6.455e-03 1.157e-02 6.455e-03 
*LOADS
*RC U2107:D 1.494e-04
*RC add_1/b_reg_15_:D 1.494e-04
*END

*R_NET r_add_1_B\[14\] 1.291e-02
*DRIVER r_add_1_B_reg_14_:Q
*CELL fd2qd1_hd
*C2_R1_C1 6.455e-03 1.157e-02 6.455e-03 
*LOADS
*RC U2106:D 1.494e-04
*RC add_1/b_reg_14_:D 1.494e-04
*END

*R_NET r_add_1_B\[13\] 1.291e-02
*DRIVER r_add_1_B_reg_13_:Q
*CELL fd2qd1_hd
*C2_R1_C1 6.455e-03 1.157e-02 6.455e-03 
*LOADS
*RC U2105:D 1.494e-04
*RC add_1/b_reg_13_:D 1.494e-04
*END

*R_NET r_add_1_B\[12\] 1.291e-02
*DRIVER r_add_1_B_reg_12_:Q
*CELL fd2qd1_hd
*C2_R1_C1 6.455e-03 1.157e-02 6.455e-03 
*LOADS
*RC U2104:D 1.494e-04
*RC add_1/b_reg_12_:D 1.494e-04
*END

*R_NET r_add_1_B\[11\] 1.291e-02
*DRIVER r_add_1_B_reg_11_:Q
*CELL fd2qd1_hd
*C2_R1_C1 6.455e-03 1.157e-02 6.455e-03 
*LOADS
*RC U2103:D 1.494e-04
*RC add_1/b_reg_11_:D 1.494e-04
*END

*R_NET r_add_1_B\[10\] 1.291e-02
*DRIVER r_add_1_B_reg_10_:Q
*CELL fd2qd1_hd
*C2_R1_C1 6.455e-03 1.157e-02 6.455e-03 
*LOADS
*RC U2102:D 1.494e-04
*RC add_1/b_reg_10_:D 1.494e-04
*END

*R_NET r_add_1_B\[9\] 1.291e-02
*DRIVER r_add_1_B_reg_9_:Q
*CELL fd2qd1_hd
*C2_R1_C1 6.455e-03 1.157e-02 6.455e-03 
*LOADS
*RC U2101:D 1.494e-04
*RC add_1/b_reg_9_:D 1.494e-04
*END

*R_NET r_add_1_B\[8\] 1.291e-02
*DRIVER r_add_1_B_reg_8_:Q
*CELL fd2qd1_hd
*C2_R1_C1 6.455e-03 1.157e-02 6.455e-03 
*LOADS
*RC U2100:D 1.494e-04
*RC add_1/b_reg_8_:D 1.494e-04
*END

*R_NET r_add_1_B\[7\] 1.291e-02
*DRIVER r_add_1_B_reg_7_:Q
*CELL fd2qd1_hd
*C2_R1_C1 6.455e-03 1.157e-02 6.455e-03 
*LOADS
*RC U2099:D 1.494e-04
*RC add_1/b_reg_7_:D 1.494e-04
*END

*R_NET r_add_1_B\[6\] 1.291e-02
*DRIVER r_add_1_B_reg_6_:Q
*CELL fd2qd1_hd
*C2_R1_C1 6.455e-03 1.157e-02 6.455e-03 
*LOADS
*RC U2098:D 1.494e-04
*RC add_1/b_reg_6_:D 1.494e-04
*END

*R_NET r_add_1_B\[5\] 1.291e-02
*DRIVER r_add_1_B_reg_5_:Q
*CELL fd2qd1_hd
*C2_R1_C1 6.455e-03 1.157e-02 6.455e-03 
*LOADS
*RC U2097:D 1.494e-04
*RC add_1/b_reg_5_:D 1.494e-04
*END

*R_NET r_add_1_B\[4\] 1.291e-02
*DRIVER r_add_1_B_reg_4_:Q
*CELL fd2qd1_hd
*C2_R1_C1 6.455e-03 1.157e-02 6.455e-03 
*LOADS
*RC U2096:D 1.494e-04
*RC add_1/b_reg_4_:D 1.494e-04
*END

*R_NET r_add_1_B\[3\] 1.291e-02
*DRIVER r_add_1_B_reg_3_:Q
*CELL fd2qd1_hd
*C2_R1_C1 6.455e-03 1.157e-02 6.455e-03 
*LOADS
*RC U2095:D 1.494e-04
*RC add_1/b_reg_3_:D 1.494e-04
*END

*R_NET r_add_1_B\[2\] 1.291e-02
*DRIVER r_add_1_B_reg_2_:Q
*CELL fd2qd1_hd
*C2_R1_C1 6.455e-03 1.157e-02 6.455e-03 
*LOADS
*RC U2094:D 1.494e-04
*RC add_1/b_reg_2_:D 1.494e-04
*END

*R_NET r_add_1_B\[1\] 1.291e-02
*DRIVER r_add_1_B_reg_1_:Q
*CELL fd2qd1_hd
*C2_R1_C1 6.455e-03 1.157e-02 6.455e-03 
*LOADS
*RC U2093:D 1.494e-04
*RC add_1/b_reg_1_:D 1.494e-04
*END

*R_NET r_add_1_B\[0\] 1.291e-02
*DRIVER r_add_1_B_reg_0_:Q
*CELL fd2qd1_hd
*C2_R1_C1 6.455e-03 1.157e-02 6.455e-03 
*LOADS
*RC U2092:D 1.494e-04
*RC add_1/b_reg_0_:D 1.494e-04
*END

*R_NET r_add_1_AB_STB 1.378e-02
*DRIVER r_add_1_AB_STB_reg:Q
*CELL fd2qd1_hd
*C2_R1_C1 6.890e-03 1.157e-02 6.890e-03 
*LOADS
*RC U1835:B 1.594e-04
*RC add_1/U865:C 1.594e-04
*END

*R_NET w_add_1_Z\[31\] 1.362e-02
*DRIVER add_1/o_Z_reg_31_:Q
*CELL fd1eqd1_hd
*C2_R1_C1 6.810e-03 1.157e-02 6.810e-03 
*LOADS
*RC U1751:A 1.576e-04
*RC U2123:B 1.576e-04
*END

*R_NET w_add_1_Z\[30\] 1.362e-02
*DRIVER add_1/o_Z_reg_30_:Q
*CELL fd1eqd1_hd
*C2_R1_C1 6.810e-03 1.157e-02 6.810e-03 
*LOADS
*RC U1719:A 1.576e-04
*RC U2122:B 1.576e-04
*END

*R_NET w_add_1_Z\[29\] 1.362e-02
*DRIVER add_1/o_Z_reg_29_:Q
*CELL fd1eqd1_hd
*C2_R1_C1 6.810e-03 1.157e-02 6.810e-03 
*LOADS
*RC U1720:A 1.576e-04
*RC U2121:B 1.576e-04
*END

*R_NET w_add_1_Z\[28\] 1.362e-02
*DRIVER add_1/o_Z_reg_28_:Q
*CELL fd1eqd1_hd
*C2_R1_C1 6.810e-03 1.157e-02 6.810e-03 
*LOADS
*RC U1741:A 1.576e-04
*RC U2120:B 1.576e-04
*END

*R_NET w_add_1_Z\[27\] 1.362e-02
*DRIVER add_1/o_Z_reg_27_:Q
*CELL fd1eqd1_hd
*C2_R1_C1 6.810e-03 1.157e-02 6.810e-03 
*LOADS
*RC U1724:A 1.576e-04
*RC U2119:B 1.576e-04
*END

*R_NET w_add_1_Z\[26\] 1.362e-02
*DRIVER add_1/o_Z_reg_26_:Q
*CELL fd1eqd1_hd
*C2_R1_C1 6.810e-03 1.157e-02 6.810e-03 
*LOADS
*RC U1723:A 1.576e-04
*RC U2118:B 1.576e-04
*END

*R_NET w_add_1_Z\[25\] 1.362e-02
*DRIVER add_1/o_Z_reg_25_:Q
*CELL fd1eqd1_hd
*C2_R1_C1 6.810e-03 1.157e-02 6.810e-03 
*LOADS
*RC U1729:A 1.576e-04
*RC U2117:B 1.576e-04
*END

*R_NET w_add_1_Z\[24\] 1.362e-02
*DRIVER add_1/o_Z_reg_24_:Q
*CELL fd1eqd1_hd
*C2_R1_C1 6.810e-03 1.157e-02 6.810e-03 
*LOADS
*RC U1732:A 1.576e-04
*RC U2116:B 1.576e-04
*END

*R_NET w_add_1_Z\[23\] 1.362e-02
*DRIVER add_1/o_Z_reg_23_:Q
*CELL fd1eqd1_hd
*C2_R1_C1 6.810e-03 1.157e-02 6.810e-03 
*LOADS
*RC U1745:A 1.576e-04
*RC U2115:B 1.576e-04
*END

*R_NET w_add_1_Z\[22\] 1.362e-02
*DRIVER add_1/o_Z_reg_22_:Q
*CELL fd1eqd1_hd
*C2_R1_C1 6.810e-03 1.157e-02 6.810e-03 
*LOADS
*RC U1725:A 1.576e-04
*RC U2114:B 1.576e-04
*END

*R_NET w_add_1_Z\[21\] 1.362e-02
*DRIVER add_1/o_Z_reg_21_:Q
*CELL fd1eqd1_hd
*C2_R1_C1 6.810e-03 1.157e-02 6.810e-03 
*LOADS
*RC U1743:A 1.576e-04
*RC U2113:B 1.576e-04
*END

*R_NET w_add_1_Z\[20\] 1.362e-02
*DRIVER add_1/o_Z_reg_20_:Q
*CELL fd1eqd1_hd
*C2_R1_C1 6.810e-03 1.157e-02 6.810e-03 
*LOADS
*RC U1733:A 1.576e-04
*RC U2112:B 1.576e-04
*END

*R_NET w_add_1_Z\[19\] 1.362e-02
*DRIVER add_1/o_Z_reg_19_:Q
*CELL fd1eqd1_hd