*SPEF "IEEE 1481-1999"
*DESIGN "iir_notch"
*DATE "Thu Aug 27 13:02:01 2020"
*VENDOR "SYNOPSYS INC"
*PROGRAM "Synopsys Design Compiler cmos"
*VERSION "F-2011.09-SP5-3"
*DESIGN_FLOW "SYNTHESIS"
*DIVIDER /
*DELIMITER :
*BUS_DELIMITER []
*T_UNIT 1.0 NS
*C_UNIT 1.0 PF
*R_UNIT 1.0 KOHM
*L_UNIT 1.0 HENRY

*PORTS

i_X_DATA\[31\] I *L 0.000e+00 *S 0.000e+00 0.000e+00 
i_X_DATA\[30\] I *L 0.000e+00 *S 0.000e+00 0.000e+00 
i_X_DATA\[29\] I *L 0.000e+00 *S 0.000e+00 0.000e+00 
i_X_DATA\[28\] I *L 0.000e+00 *S 0.000e+00 0.000e+00 
i_X_DATA\[27\] I *L 0.000e+00 *S 0.000e+00 0.000e+00 
i_X_DATA\[26\] I *L 0.000e+00 *S 0.000e+00 0.000e+00 
i_X_DATA\[25\] I *L 0.000e+00 *S 0.000e+00 0.000e+00 
i_X_DATA\[24\] I *L 0.000e+00 *S 0.000e+00 0.000e+00 
i_X_DATA\[23\] I *L 0.000e+00 *S 0.000e+00 0.000e+00 
i_X_DATA\[22\] I *L 0.000e+00 *S 0.000e+00 0.000e+00 
i_X_DATA\[21\] I *L 0.000e+00 *S 0.000e+00 0.000e+00 
i_X_DATA\[20\] I *L 0.000e+00 *S 0.000e+00 0.000e+00 
i_X_DATA\[19\] I *L 0.000e+00 *S 0.000e+00 0.000e+00 
i_X_DATA\[18\] I *L 0.000e+00 *S 0.000e+00 0.000e+00 
i_X_DATA\[17\] I *L 0.000e+00 *S 0.000e+00 0.000e+00 
i_X_DATA\[16\] I *L 0.000e+00 *S 0.000e+00 0.000e+00 
i_X_DATA\[15\] I *L 0.000e+00 *S 0.000e+00 0.000e+00 
i_X_DATA\[14\] I *L 0.000e+00 *S 0.000e+00 0.000e+00 
i_X_DATA\[13\] I *L 0.000e+00 *S 0.000e+00 0.000e+00 
i_X_DATA\[12\] I *L 0.000e+00 *S 0.000e+00 0.000e+00 
i_X_DATA\[11\] I *L 0.000e+00 *S 0.000e+00 0.000e+00 
i_X_DATA\[10\] I *L 0.000e+00 *S 0.000e+00 0.000e+00 
i_X_DATA\[9\] I *L 0.000e+00 *S 0.000e+00 0.000e+00 
i_X_DATA\[8\] I *L 0.000e+00 *S 0.000e+00 0.000e+00 
i_X_DATA\[7\] I *L 0.000e+00 *S 0.000e+00 0.000e+00 
i_X_DATA\[6\] I *L 0.000e+00 *S 0.000e+00 0.000e+00 
i_X_DATA\[5\] I *L 0.000e+00 *S 0.000e+00 0.000e+00 
i_X_DATA\[4\] I *L 0.000e+00 *S 0.000e+00 0.000e+00 
i_X_DATA\[3\] I *L 0.000e+00 *S 0.000e+00 0.000e+00 
i_X_DATA\[2\] I *L 0.000e+00 *S 0.000e+00 0.000e+00 
i_X_DATA\[1\] I *L 0.000e+00 *S 0.000e+00 0.000e+00 
i_X_DATA\[0\] I *L 0.000e+00 *S 0.000e+00 0.000e+00 
i_X_DATA_VALID I *L 0.000e+00 *S 0.000e+00 0.000e+00 
o_X_DATA_READY O *L 1.035e-02 *S 2.864e-01 2.137e-01 
o_Y_DATA\[31\] O *L 1.035e-02 *S 2.552e-01 2.609e-01 
o_Y_DATA\[30\] O *L 1.035e-02 *S 2.552e-01 2.609e-01 
o_Y_DATA\[29\] O *L 1.035e-02 *S 2.552e-01 2.609e-01 
o_Y_DATA\[28\] O *L 1.035e-02 *S 2.552e-01 2.609e-01 
o_Y_DATA\[27\] O *L 1.035e-02 *S 2.552e-01 2.609e-01 
o_Y_DATA\[26\] O *L 1.035e-02 *S 2.552e-01 2.609e-01 
o_Y_DATA\[25\] O *L 1.035e-02 *S 2.552e-01 2.609e-01 
o_Y_DATA\[24\] O *L 1.035e-02 *S 2.552e-01 2.609e-01 
o_Y_DATA\[23\] O *L 1.035e-02 *S 2.552e-01 2.609e-01 
o_Y_DATA\[22\] O *L 1.035e-02 *S 2.552e-01 2.609e-01 
o_Y_DATA\[21\] O *L 1.035e-02 *S 2.552e-01 2.609e-01 
o_Y_DATA\[20\] O *L 1.035e-02 *S 2.552e-01 2.609e-01 
o_Y_DATA\[19\] O *L 1.035e-02 *S 2.552e-01 2.609e-01 
o_Y_DATA\[18\] O *L 1.035e-02 *S 2.552e-01 2.609e-01 
o_Y_DATA\[17\] O *L 1.035e-02 *S 2.552e-01 2.609e-01 
o_Y_DATA\[16\] O *L 1.035e-02 *S 2.552e-01 2.609e-01 
o_Y_DATA\[15\] O *L 1.035e-02 *S 2.552e-01 2.609e-01 
o_Y_DATA\[14\] O *L 1.035e-02 *S 2.552e-01 2.609e-01 
o_Y_DATA\[13\] O *L 1.035e-02 *S 2.552e-01 2.609e-01 
o_Y_DATA\[12\] O *L 1.035e-02 *S 2.552e-01 2.609e-01 
o_Y_DATA\[11\] O *L 1.035e-02 *S 2.552e-01 2.609e-01 
o_Y_DATA\[10\] O *L 1.035e-02 *S 2.552e-01 2.609e-01 
o_Y_DATA\[9\] O *L 1.035e-02 *S 2.552e-01 2.609e-01 
o_Y_DATA\[8\] O *L 1.035e-02 *S 2.552e-01 2.609e-01 
o_Y_DATA\[7\] O *L 1.035e-02 *S 2.552e-01 2.609e-01 
o_Y_DATA\[6\] O *L 1.035e-02 *S 2.552e-01 2.609e-01 
o_Y_DATA\[5\] O *L 1.035e-02 *S 2.552e-01 2.609e-01 
o_Y_DATA\[4\] O *L 1.035e-02 *S 2.552e-01 2.609e-01 
o_Y_DATA\[3\] O *L 1.035e-02 *S 2.552e-01 2.609e-01 
o_Y_DATA\[2\] O *L 1.035e-02 *S 2.552e-01 2.609e-01 
o_Y_DATA\[1\] O *L 1.035e-02 *S 2.552e-01 2.609e-01 
o_Y_DATA\[0\] O *L 1.035e-02 *S 2.552e-01 2.609e-01 
o_Y_DATA_VALID O *L 1.035e-02 *S 2.586e-01 2.636e-01 
i_Y_ACK I *L 0.000e+00 *S 0.000e+00 0.000e+00 
i_CLK I *L 0.000e+00 *S 0.000e+00 0.000e+00 
i_RSTN I *L 0.000e+00 *S 0.000e+00 0.000e+00 

*R_NET i_X_DATA\[31\] 5.290e-03
*DRIVER i_X_DATA\[31\]
*CELL NULL
*C2_R1_C1 2.645e-03 7.940e-03 2.645e-03 
*LOADS
*RC U1730:B 4.200e-05
*END

*R_NET i_X_DATA\[30\] 5.290e-03
*DRIVER i_X_DATA\[30\]
*CELL NULL
*C2_R1_C1 2.645e-03 7.940e-03 2.645e-03 
*LOADS
*RC U1729:B 4.200e-05
*END

*R_NET i_X_DATA\[29\] 5.290e-03
*DRIVER i_X_DATA\[29\]
*CELL NULL
*C2_R1_C1 2.645e-03 7.940e-03 2.645e-03 
*LOADS
*RC U1728:B 4.200e-05
*END

*R_NET i_X_DATA\[28\] 5.290e-03
*DRIVER i_X_DATA\[28\]
*CELL NULL
*C2_R1_C1 2.645e-03 7.940e-03 2.645e-03 
*LOADS
*RC U1727:B 4.200e-05
*END

*R_NET i_X_DATA\[27\] 5.290e-03
*DRIVER i_X_DATA\[27\]
*CELL NULL
*C2_R1_C1 2.645e-03 7.940e-03 2.645e-03 
*LOADS
*RC U1726:B 4.200e-05
*END

*R_NET i_X_DATA\[26\] 5.290e-03
*DRIVER i_X_DATA\[26\]
*CELL NULL
*C2_R1_C1 2.645e-03 7.940e-03 2.645e-03 
*LOADS
*RC U1725:B 4.200e-05
*END

*R_NET i_X_DATA\[25\] 5.290e-03
*DRIVER i_X_DATA\[25\]
*CELL NULL
*C2_R1_C1 2.645e-03 7.940e-03 2.645e-03 
*LOADS
*RC U1724:B 4.200e-05
*END

*R_NET i_X_DATA\[24\] 5.290e-03
*DRIVER i_X_DATA\[24\]
*CELL NULL
*C2_R1_C1 2.645e-03 7.940e-03 2.645e-03 
*LOADS
*RC U1607:B 4.200e-05
*END

*R_NET i_X_DATA\[23\] 5.290e-03
*DRIVER i_X_DATA\[23\]
*CELL NULL
*C2_R1_C1 2.645e-03 7.940e-03 2.645e-03 
*LOADS
*RC U1606:B 4.200e-05
*END

*R_NET i_X_DATA\[22\] 5.290e-03
*DRIVER i_X_DATA\[22\]
*CELL NULL
*C2_R1_C1 2.645e-03 7.940e-03 2.645e-03 
*LOADS
*RC U1605:B 4.200e-05
*END

*R_NET i_X_DATA\[21\] 5.290e-03
*DRIVER i_X_DATA\[21\]
*CELL NULL
*C2_R1_C1 2.645e-03 7.940e-03 2.645e-03 
*LOADS
*RC U1604:B 4.200e-05
*END

*R_NET i_X_DATA\[20\] 5.290e-03
*DRIVER i_X_DATA\[20\]
*CELL NULL
*C2_R1_C1 2.645e-03 7.940e-03 2.645e-03 
*LOADS
*RC U1603:B 4.200e-05
*END

*R_NET i_X_DATA\[19\] 5.290e-03
*DRIVER i_X_DATA\[19\]
*CELL NULL
*C2_R1_C1 2.645e-03 7.940e-03 2.645e-03 
*LOADS
*RC U1602:B 4.200e-05
*END

*R_NET i_X_DATA\[18\] 5.290e-03
*DRIVER i_X_DATA\[18\]
*CELL NULL
*C2_R1_C1 2.645e-03 7.940e-03 2.645e-03 
*LOADS
*RC U1601:B 4.200e-05
*END

*R_NET i_X_DATA\[17\] 5.290e-03
*DRIVER i_X_DATA\[17\]
*CELL NULL
*C2_R1_C1 2.645e-03 7.940e-03 2.645e-03 
*LOADS
*RC U1600:B 4.200e-05
*END

*R_NET i_X_DATA\[16\] 5.290e-03
*DRIVER i_X_DATA\[16\]
*CELL NULL
*C2_R1_C1 2.645e-03 7.940e-03 2.645e-03 
*LOADS
*RC U1599:B 4.200e-05
*END

*R_NET i_X_DATA\[15\] 5.290e-03
*DRIVER i_X_DATA\[15\]
*CELL NULL
*C2_R1_C1 2.645e-03 7.940e-03 2.645e-03 
*LOADS
*RC U1598:B 4.200e-05
*END

*R_NET i_X_DATA\[14\] 5.290e-03
*DRIVER i_X_DATA\[14\]
*CELL NULL
*C2_R1_C1 2.645e-03 7.940e-03 2.645e-03 
*LOADS
*RC U1597:B 4.200e-05
*END

*R_NET i_X_DATA\[13\] 5.290e-03
*DRIVER i_X_DATA\[13\]
*CELL NULL
*C2_R1_C1 2.645e-03 7.940e-03 2.645e-03 
*LOADS
*RC U1596:B 4.200e-05
*END

*R_NET i_X_DATA\[12\] 5.290e-03
*DRIVER i_X_DATA\[12\]
*CELL NULL
*C2_R1_C1 2.645e-03 7.940e-03 2.645e-03 
*LOADS
*RC U1595:B 4.200e-05
*END

*R_NET i_X_DATA\[11\] 5.290e-03
*DRIVER i_X_DATA\[11\]
*CELL NULL
*C2_R1_C1 2.645e-03 7.940e-03 2.645e-03 
*LOADS
*RC U1594:B 4.200e-05
*END

*R_NET i_X_DATA\[10\] 5.290e-03
*DRIVER i_X_DATA\[10\]
*CELL NULL
*C2_R1_C1 2.645e-03 7.940e-03 2.645e-03 
*LOADS
*RC U1593:B 4.200e-05
*END

*R_NET i_X_DATA\[9\] 5.290e-03
*DRIVER i_X_DATA\[9\]
*CELL NULL
*C2_R1_C1 2.645e-03 7.940e-03 2.645e-03 
*LOADS
*RC U1592:B 4.200e-05
*END

*R_NET i_X_DATA\[8\] 5.290e-03
*DRIVER i_X_DATA\[8\]
*CELL NULL
*C2_R1_C1 2.645e-03 7.940e-03 2.645e-03 
*LOADS
*RC U1591:B 4.200e-05
*END

*R_NET i_X_DATA\[7\] 5.290e-03
*DRIVER i_X_DATA\[7\]
*CELL NULL
*C2_R1_C1 2.645e-03 7.940e-03 2.645e-03 
*LOADS
*RC U1590:B 4.200e-05
*END

*R_NET i_X_DATA\[6\] 5.290e-03
*DRIVER i_X_DATA\[6\]
*CELL NULL
*C2_R1_C1 2.645e-03 7.940e-03 2.645e-03 
*LOADS
*RC U1589:B 4.200e-05
*END

*R_NET i_X_DATA\[5\] 5.290e-03
*DRIVER i_X_DATA\[5\]
*CELL NULL
*C2_R1_C1 2.645e-03 7.940e-03 2.645e-03 
*LOADS
*RC U1588:B 4.200e-05
*END

*R_NET i_X_DATA\[4\] 5.290e-03
*DRIVER i_X_DATA\[4\]
*CELL NULL
*C2_R1_C1 2.645e-03 7.940e-03 2.645e-03 
*LOADS
*RC U1691:B 4.200e-05
*END

*R_NET i_X_DATA\[3\] 5.290e-03
*DRIVER i_X_DATA\[3\]
*CELL NULL
*C2_R1_C1 2.645e-03 7.940e-03 2.645e-03 
*LOADS
*RC U1690:B 4.200e-05
*END

*R_NET i_X_DATA\[2\] 5.290e-03
*DRIVER i_X_DATA\[2\]
*CELL NULL
*C2_R1_C1 2.645e-03 7.940e-03 2.645e-03 
*LOADS
*RC U1689:B 4.200e-05
*END

*R_NET i_X_DATA\[1\] 5.290e-03
*DRIVER i_X_DATA\[1\]
*CELL NULL
*C2_R1_C1 2.645e-03 7.940e-03 2.645e-03 
*LOADS
*RC U1688:B 4.200e-05
*END

*R_NET i_X_DATA\[0\] 5.290e-03
*DRIVER i_X_DATA\[0\]
*CELL NULL
*C2_R1_C1 2.645e-03 7.940e-03 2.645e-03 
*LOADS
*RC U1687:B 4.200e-05
*END

*R_NET i_X_DATA_VALID 1.873e-02
*DRIVER i_X_DATA_VALID
*CELL NULL
*C2_R1_C1 9.365e-03 1.157e-02 9.365e-03 
*LOADS
*RC U1223:A 2.167e-04
*RC U1978:A 2.167e-04
*END

*R_NET o_X_DATA_READY 3.347e-02
*DRIVER o_X_DATA_READY_reg:Q
*CELL fds2eqd1_hd
*C2_R1_C1 1.674e-02 1.366e-02 1.674e-02 
*LOADS
*RC U1223:B 4.572e-04
*RC U1978:B 4.572e-04
*RC o_X_DATA_READY 4.572e-04
*END

*R_NET o_Y_DATA\[31\] 2.788e-02
*DRIVER o_Y_DATA_reg_31_:Q
*CELL fd4qd1_hd
*C2_R1_C1 1.394e-02 1.366e-02 1.394e-02 
*LOADS
*RC U1715:B 3.808e-04
*RC U1964:D0 3.808e-04
*RC o_Y_DATA\[31\] 3.808e-04
*END

*R_NET o_Y_DATA\[30\] 2.788e-02
*DRIVER o_Y_DATA_reg_30_:Q
*CELL fd4qd1_hd
*C2_R1_C1 1.394e-02 1.366e-02 1.394e-02 
*LOADS
*RC U1714:B 3.808e-04
*RC U1963:D0 3.808e-04
*RC o_Y_DATA\[30\] 3.808e-04
*END

*R_NET o_Y_DATA\[29\] 2.788e-02
*DRIVER o_Y_DATA_reg_29_:Q
*CELL fd4qd1_hd
*C2_R1_C1 1.394e-02 1.366e-02 1.394e-02 
*LOADS
*RC U1827:B 3.808e-04
*RC U1962:D0 3.808e-04
*RC o_Y_DATA\[29\] 3.808e-04
*END

*R_NET o_Y_DATA\[28\] 2.788e-02
*DRIVER o_Y_DATA_reg_28_:Q
*CELL fd4qd1_hd
*C2_R1_C1 1.394e-02 1.366e-02 1.394e-02 
*LOADS
*RC U1826:B 3.808e-04
*RC U1961:D0 3.808e-04
*RC o_Y_DATA\[28\] 3.808e-04
*END

*R_NET o_Y_DATA\[27\] 2.788e-02
*DRIVER o_Y_DATA_reg_27_:Q
*CELL fd4qd1_hd
*C2_R1_C1 1.394e-02 1.366e-02 1.394e-02 
*LOADS
*RC U1825:B 3.808e-04
*RC U1960:D0 3.808e-04
*RC o_Y_DATA\[27\] 3.808e-04
*END

*R_NET o_Y_DATA\[26\] 2.788e-02
*DRIVER o_Y_DATA_reg_26_:Q
*CELL fd4qd1_hd
*C2_R1_C1 1.394e-02 1.366e-02 1.394e-02 
*LOADS
*RC U1824:B 3.808e-04
*RC U1959:D0 3.808e-04
*RC o_Y_DATA\[26\] 3.808e-04
*END

*R_NET o_Y_DATA\[25\] 2.788e-02
*DRIVER o_Y_DATA_reg_25_:Q
*CELL fd4qd1_hd
*C2_R1_C1 1.394e-02 1.366e-02 1.394e-02 
*LOADS
*RC U1823:B 3.808e-04
*RC U1958:D0 3.808e-04
*RC o_Y_DATA\[25\] 3.808e-04
*END

*R_NET o_Y_DATA\[24\] 2.788e-02
*DRIVER o_Y_DATA_reg_24_:Q
*CELL fd4qd1_hd
*C2_R1_C1 1.394e-02 1.366e-02 1.394e-02 
*LOADS
*RC U1822:B 3.808e-04
*RC U1957:D0 3.808e-04
*RC o_Y_DATA\[24\] 3.808e-04
*END

*R_NET o_Y_DATA\[23\] 2.788e-02
*DRIVER o_Y_DATA_reg_23_:Q
*CELL fd4qd1_hd
*C2_R1_C1 1.394e-02 1.366e-02 1.394e-02 
*LOADS
*RC U1821:B 3.808e-04
*RC U1956:D0 3.808e-04
*RC o_Y_DATA\[23\] 3.808e-04
*END

*R_NET o_Y_DATA\[22\] 2.788e-02
*DRIVER o_Y_DATA_reg_22_:Q
*CELL fd4qd1_hd
*C2_R1_C1 1.394e-02 1.366e-02 1.394e-02 
*LOADS
*RC U1820:B 3.808e-04
*RC U1955:D0 3.808e-04
*RC o_Y_DATA\[22\] 3.808e-04
*END

*R_NET o_Y_DATA\[21\] 2.788e-02
*DRIVER o_Y_DATA_reg_21_:Q
*CELL fd4qd1_hd
*C2_R1_C1 1.394e-02 1.366e-02 1.394e-02 
*LOADS
*RC U1819:B 3.808e-04
*RC U1954:D0 3.808e-04
*RC o_Y_DATA\[21\] 3.808e-04
*END

*R_NET o_Y_DATA\[20\] 2.788e-02
*DRIVER o_Y_DATA_reg_20_:Q
*CELL fd4qd1_hd
*C2_R1_C1 1.394e-02 1.366e-02 1.394e-02 
*LOADS
*RC U1818:B 3.808e-04
*RC U1953:D0 3.808e-04
*RC o_Y_DATA\[20\] 3.808e-04
*END

*R_NET o_Y_DATA\[19\] 2.788e-02
*DRIVER o_Y_DATA_reg_19_:Q
*CELL fd4qd1_hd
*C2_R1_C1 1.394e-02 1.366e-02 1.394e-02 
*LOADS
*RC U1817:B 3.808e-04
*RC U1952:D0 3.808e-04
*RC o_Y_DATA\[19\] 3.808e-04
*END

*R_NET o_Y_DATA\[18\] 2.788e-02
*DRIVER o_Y_DATA_reg_18_:Q
*CELL fd4qd1_hd
*C2_R1_C1 1.394e-02 1.366e-02 1.394e-02 
*LOADS
*RC U1816:B 3.808e-04
*RC U1951:D0 3.808e-04
*RC o_Y_DATA\[18\] 3.808e-04
*END

*R_NET o_Y_DATA\[17\] 2.788e-02
*DRIVER o_Y_DATA_reg_17_:Q
*CELL fd4qd1_hd
*C2_R1_C1 1.394e-02 1.366e-02 1.394e-02 
*LOADS
*RC U1815:B 3.808e-04
*RC U1950:D0 3.808e-04
*RC o_Y_DATA\[17\] 3.808e-04
*END

*R_NET o_Y_DATA\[16\] 2.788e-02
*DRIVER o_Y_DATA_reg_16_:Q
*CELL fd4qd1_hd
*C2_R1_C1 1.394e-02 1.366e-02 1.394e-02 
*LOADS
*RC U1814:B 3.808e-04
*RC U1949:D0 3.808e-04
*RC o_Y_DATA\[16\] 3.808e-04
*END

*R_NET o_Y_DATA\[15\] 2.788e-02
*DRIVER o_Y_DATA_reg_15_:Q
*CELL fd4qd1_hd
*C2_R1_C1 1.394e-02 1.366e-02 1.394e-02 
*LOADS
*RC U1813:B 3.808e-04
*RC U1948:D0 3.808e-04
*RC o_Y_DATA\[15\] 3.808e-04
*END

*R_NET o_Y_DATA\[14\] 2.788e-02
*DRIVER o_Y_DATA_reg_14_:Q
*CELL fd4qd1_hd
*C2_R1_C1 1.394e-02 1.366e-02 1.394e-02 
*LOADS
*RC U1812:B 3.808e-04
*RC U1947:D0 3.808e-04
*RC o_Y_DATA\[14\] 3.808e-04
*END

*R_NET o_Y_DATA\[13\] 2.788e-02
*DRIVER o_Y_DATA_reg_13_:Q
*CELL fd4qd1_hd
*C2_R1_C1 1.394e-02 1.366e-02 1.394e-02 
*LOADS
*RC U1811:B 3.808e-04
*RC U1946:D0 3.808e-04
*RC o_Y_DATA\[13\] 3.808e-04
*END

*R_NET o_Y_DATA\[12\] 2.788e-02
*DRIVER o_Y_DATA_reg_12_:Q
*CELL fd4qd1_hd
*C2_R1_C1 1.394e-02 1.366e-02 1.394e-02 
*LOADS
*RC U1810:B 3.808e-04
*RC U1945:D0 3.808e-04
*RC o_Y_DATA\[12\] 3.808e-04
*END

*R_NET o_Y_DATA\[11\] 2.788e-02
*DRIVER o_Y_DATA_reg_11_:Q
*CELL fd4qd1_hd
*C2_R1_C1 1.394e-02 1.366e-02 1.394e-02 
*LOADS
*RC U1809:B 3.808e-04
*RC U1944:D0 3.808e-04
*RC o_Y_DATA\[11\] 3.808e-04
*END

*R_NET o_Y_DATA\[10\] 2.788e-02
*DRIVER o_Y_DATA_reg_10_:Q
*CELL fd4qd1_hd
*C2_R1_C1 1.394e-02 1.366e-02 1.394e-02 
*LOADS
*RC U1808:B 3.808e-04
*RC U1943:D0 3.808e-04
*RC o_Y_DATA\[10\] 3.808e-04
*END

*R_NET o_Y_DATA\[9\] 2.788e-02
*DRIVER o_Y_DATA_reg_9_:Q
*CELL fd4qd1_hd
*C2_R1_C1 1.394e-02 1.366e-02 1.394e-02 
*LOADS
*RC U1807:B 3.808e-04
*RC U1942:D0 3.808e-04
*RC o_Y_DATA\[9\] 3.808e-04
*END

*R_NET o_Y_DATA\[8\] 2.788e-02
*DRIVER o_Y_DATA_reg_8_:Q
*CELL fd4qd1_hd
*C2_R1_C1 1.394e-02 1.366e-02 1.394e-02 
*LOADS
*RC U1806:B 3.808e-04
*RC U1941:D0 3.808e-04
*RC o_Y_DATA\[8\] 3.808e-04
*END

*R_NET o_Y_DATA\[7\] 2.788e-02
*DRIVER o_Y_DATA_reg_7_:Q
*CELL fd4qd1_hd
*C2_R1_C1 1.394e-02 1.366e-02 1.394e-02 
*LOADS
*RC U1805:B 3.808e-04
*RC U1940:D0 3.808e-04
*RC o_Y_DATA\[7\] 3.808e-04
*END

*R_NET o_Y_DATA\[6\] 2.788e-02
*DRIVER o_Y_DATA_reg_6_:Q
*CELL fd4qd1_hd
*C2_R1_C1 1.394e-02 1.366e-02 1.394e-02 
*LOADS
*RC U1804:B 3.808e-04
*RC U1939:D0 3.808e-04
*RC o_Y_DATA\[6\] 3.808e-04
*END

*R_NET o_Y_DATA\[5\] 2.788e-02
*DRIVER o_Y_DATA_reg_5_:Q
*CELL fd4qd1_hd
*C2_R1_C1 1.394e-02 1.366e-02 1.394e-02 
*LOADS
*RC U1908:B 3.808e-04
*RC U1938:D0 3.808e-04
*RC o_Y_DATA\[5\] 3.808e-04
*END

*R_NET o_Y_DATA\[4\] 2.788e-02
*DRIVER o_Y_DATA_reg_4_:Q
*CELL fd4qd1_hd
*C2_R1_C1 1.394e-02 1.366e-02 1.394e-02 
*LOADS
*RC U1907:B 3.808e-04
*RC U1937:D0 3.808e-04
*RC o_Y_DATA\[4\] 3.808e-04
*END

*R_NET o_Y_DATA\[3\] 2.788e-02
*DRIVER o_Y_DATA_reg_3_:Q
*CELL fd4qd1_hd
*C2_R1_C1 1.394e-02 1.366e-02 1.394e-02 
*LOADS
*RC U1906:B 3.808e-04
*RC U1936:D0 3.808e-04
*RC o_Y_DATA\[3\] 3.808e-04
*END

*R_NET o_Y_DATA\[2\] 2.788e-02
*DRIVER o_Y_DATA_reg_2_:Q
*CELL fd4qd1_hd
*C2_R1_C1 1.394e-02 1.366e-02 1.394e-02 
*LOADS
*RC U1905:B 3.808e-04
*RC U1935:D0 3.808e-04
*RC o_Y_DATA\[2\] 3.808e-04
*END

*R_NET o_Y_DATA\[1\] 2.788e-02
*DRIVER o_Y_DATA_reg_1_:Q
*CELL fd4qd1_hd
*C2_R1_C1 1.394e-02 1.366e-02 1.394e-02 
*LOADS
*RC U1904:B 3.808e-04
*RC U1934:D0 3.808e-04
*RC o_Y_DATA\[1\] 3.808e-04
*END

*R_NET o_Y_DATA\[0\] 2.788e-02
*DRIVER o_Y_DATA_reg_0_:Q
*CELL fd4qd1_hd
*C2_R1_C1 1.394e-02 1.366e-02 1.394e-02 
*LOADS
*RC U1903:B 3.808e-04
*RC U1933:D0 3.808e-04
*RC o_Y_DATA\[0\] 3.808e-04
*END

*R_NET o_Y_DATA_VALID 2.830e-02
*DRIVER o_Y_DATA_VALID_reg:Q
*CELL fd4qd1_hd
*C2_R1_C1 1.415e-02 1.366e-02 1.415e-02 
*LOADS
*RC U1927:D0 3.866e-04
*RC U2700:A 3.866e-04
*RC o_Y_DATA_VALID 3.866e-04
*END

*R_NET i_Y_ACK 5.700e-03
*DRIVER i_Y_ACK
*CELL NULL
*C2_R1_C1 2.850e-03 7.940e-03 2.850e-03 
*LOADS
*RC U2700:B 4.526e-05
*END

*R_NET w_rstn 7.930e-02
*DRIVER async_rstn_synchronizer/o_RSTN_reg:Q
*CELL fd2qd1_hd
*C2_R1_C1 3.965e-02 2.645e-02 3.965e-02 
*LOADS
*RC r_y_data_reg_50_:RN 2.098e-03
*RC r_y_data_reg_51_:RN 2.098e-03
*RC r_y_data_reg_52_:RN 2.098e-03
*RC r_y_data_reg_82_:RN 2.098e-03
*RC r_y_data_reg_83_:RN 2.098e-03
*RC r_y_data_reg_84_:RN 2.098e-03
*RC r_y_data_reg_85_:RN 2.098e-03
*RC r_y_data_reg_114_:RN 2.098e-03
*RC o_Y_DATA_reg_26_:RN 2.098e-03
*RC r_add_1_A_reg_31_:RN 2.098e-03
*RC r_mult_3_B_reg_0_:RN 2.098e-03
*RC r_add_1_Z_ACK_reg:RN 2.098e-03
*RC U2690:A 2.098e-03
*RC U2693:A 2.098e-03
*END

*R_NET w_rst 5.560e-03
*DRIVER async_rst_synchronizer/o_RST_reg:Q
*CELL fd3qd1_hd
*C2_R1_C1 2.780e-03 7.940e-03 2.780e-03 
*LOADS
*RC U1993:A 4.415e-05
*END

*R_NET w_add_1_AB_ACK 1.345e-02
*DRIVER add_1/o_AB_ACK_reg:Q
*CELL fds2eqd1_hd
*C2_R1_C1 6.725e-03 1.157e-02 6.725e-03 
*LOADS
*RC add_1/U489:B 1.556e-04
*RC U1229:A 1.556e-04
*END

*R_NET w_add_2_AB_ACK 1.360e-02
*DRIVER add_2/o_AB_ACK_reg:Q
*CELL fds2eqd1_hd
*C2_R1_C1 6.800e-03 1.157e-02 6.800e-03 
*LOADS
*RC add_2/U489:B 1.574e-04
*RC U1229:B 1.574e-04
*END

*R_NET w_add_AB_ACK 5.700e-03
*DRIVER U1229:Y
*CELL ad2d1_hd
*C2_R1_C1 2.850e-03 7.940e-03 2.850e-03 
*LOADS
*RC U2699:B 4.526e-05
*END

*R_NET w_add_1_Z_STB 3.114e-02
*DRIVER add_1/o_Z_STB_reg:Q
*CELL fds2eqd1_hd
*C2_R1_C1 1.557e-02 1.824e-02 1.557e-02 
*LOADS
*RC add_1/U329:B 5.680e-04
*RC U1292:A 5.680e-04
*RC U301:C 5.680e-04
*RC U315:B 5.680e-04
*END

*R_NET w_add_2_Z_STB 1.360e-02
*DRIVER add_2/o_Z_STB_reg:Q
*CELL fds2eqd1_hd
*C2_R1_C1 6.800e-03 1.157e-02 6.800e-03 
*LOADS
*RC add_2/U329:B 1.574e-04
*RC U1292:B 1.574e-04
*END

*R_NET w_add_Z_STB 3.838e-02
*DRIVER U1292:Y
*CELL ad2d1_hd
*C2_R1_C1 1.919e-02 1.956e-02 1.919e-02 
*LOADS
*RC U1239:A 7.507e-04
*RC U1245:A 7.507e-04
*RC U1991:A 7.507e-04
*RC U300:A 7.507e-04
*RC U328:A 7.507e-04
*END

*R_NET r_add_1_A\[31\] 1.993e-02
*DRIVER r_add_1_A_reg_31_:Q
*CELL fd4qd1_hd
*C2_R1_C1 9.965e-03 1.366e-02 9.965e-03 
*LOADS
*RC U1326:D0 2.722e-04
*RC U716:C 2.722e-04
*RC add_1/a_reg_31_:D 2.722e-04
*END

*R_NET r_add_1_A\[30\] 1.993e-02
*DRIVER r_add_1_A_reg_30_:Q
*CELL fd4qd1_hd
*C2_R1_C1 9.965e-03 1.366e-02 9.965e-03 
*LOADS
*RC U1325:D0 2.722e-04
*RC U720:C 2.722e-04
*RC add_1/a_reg_30_:D 2.722e-04
*END

*R_NET r_add_1_A\[29\] 1.998e-02
*DRIVER r_add_1_A_reg_29_:Q
*CELL fd4qd1_hd
*C2_R1_C1 9.990e-03 1.366e-02 9.990e-03 
*LOADS
*RC U1324:D0 2.729e-04
*RC U724:C 2.729e-04
*RC add_1/a_reg_29_:D 2.729e-04
*END

*R_NET r_add_1_A\[28\] 1.998e-02
*DRIVER r_add_1_A_reg_28_:Q
*CELL fd4qd1_hd
*C2_R1_C1 9.990e-03 1.366e-02 9.990e-03 
*LOADS
*RC U1323:D0 2.729e-04
*RC U728:C 2.729e-04
*RC add_1/a_reg_28_:D 2.729e-04
*END

*R_NET r_add_1_A\[27\] 1.993e-02
*DRIVER r_add_1_A_reg_27_:Q
*CELL fd4qd1_hd
*C2_R1_C1 9.965e-03 1.366e-02 9.965e-03 
*LOADS
*RC U1322:D0 2.722e-04
*RC U732:C 2.722e-04
*RC add_1/a_reg_27_:D 2.722e-04
*END

*R_NET r_add_1_A\[26\] 1.993e-02
*DRIVER r_add_1_A_reg_26_:Q
*CELL fd4qd1_hd
*C2_R1_C1 9.965e-03 1.366e-02 9.965e-03 
*LOADS
*RC U1321:D0 2.722e-04
*RC U736:C 2.722e-04
*RC add_1/a_reg_26_:D 2.722e-04
*END

*R_NET r_add_1_A\[25\] 1.998e-02
*DRIVER r_add_1_A_reg_25_:Q
*CELL fd4qd1_hd
*C2_R1_C1 9.990e-03 1.366e-02 9.990e-03 
*LOADS
*RC U1320:D0 2.729e-04
*RC U740:C 2.729e-04
*RC add_1/a_reg_25_:D 2.729e-04
*END

*R_NET r_add_1_A\[24\] 1.998e-02
*DRIVER r_add_1_A_reg_24_:Q
*CELL fd4qd1_hd
*C2_R1_C1 9.990e-03 1.366e-02 9.990e-03 
*LOADS
*RC U1319:D0 2.729e-04
*RC U744:C 2.729e-04
*RC add_1/a_reg_24_:D 2.729e-04
*END

*R_NET r_add_1_A\[23\] 1.993e-02
*DRIVER r_add_1_A_reg_23_:Q
*CELL fd4qd1_hd
*C2_R1_C1 9.965e-03 1.366e-02 9.965e-03 
*LOADS
*RC U1318:D0 2.722e-04
*RC U748:C 2.722e-04
*RC add_1/a_reg_23_:D 2.722e-04
*END

*R_NET r_add_1_A\[22\] 1.993e-02
*DRIVER r_add_1_A_reg_22_:Q
*CELL fd4qd1_hd
*C2_R1_C1 9.965e-03 1.366e-02 9.965e-03 
*LOADS
*RC U1317:D0 2.722e-04
*RC U752:C 2.722e-04
*RC add_1/a_reg_22_:D 2.722e-04
*END

*R_NET r_add_1_A\[21\] 1.998e-02
*DRIVER r_add_1_A_reg_21_:Q
*CELL fd4qd1_hd
*C2_R1_C1 9.990e-03 1.366e-02 9.990e-03 
*LOADS
*RC U1316:D0 2.729e-04
*RC U756:C 2.729e-04
*RC add_1/a_reg_21_:D 2.729e-04
*END

*R_NET r_add_1_A\[20\] 1.998e-02
*DRIVER r_add_1_A_reg_20_:Q
*CELL fd4qd1_hd
*C2_R1_C1 9.990e-03 1.366e-02 9.990e-03 
*LOADS
*RC U1315:D0 2.729e-04
*RC U760:C 2.729e-04
*RC add_1/a_reg_20_:D 2.729e-04
*END

*R_NET r_add_1_A\[19\] 1.993e-02
*DRIVER r_add_1_A_reg_19_:Q
*CELL fd4qd1_hd
*C2_R1_C1 9.965e-03 1.366e-02 9.965e-03 
*LOADS
*RC U1314:D0 2.722e-04
*RC U764:C 2.722e-04
*RC add_1/a_reg_19_:D 2.722e-04
*END

*R_NET r_add_1_A\[18\] 1.993e-02
*DRIVER r_add_1_A_reg_18_:Q
*CELL fd4qd1_hd
*C2_R1_C1 9.965e-03 1.366e-02 9.965e-03 
*LOADS
*RC U1313:D0 2.722e-04
*RC U768:C 2.722e-04
*RC add_1/a_reg_18_:D 2.722e-04
*END

*R_NET r_add_1_A\[17\] 1.998e-02
*DRIVER r_add_1_A_reg_17_:Q
*CELL fd4qd1_hd
*C2_R1_C1 9.990e-03 1.366e-02 9.990e-03 
*LOADS
*RC U1312:D0 2.729e-04
*RC U772:C 2.729e-04
*RC add_1/a_reg_17_:D 2.729e-04
*END

*R_NET r_add_1_A\[16\] 1.998e-02
*DRIVER r_add_1_A_reg_16_:Q
*CELL fd4qd1_hd
*C2_R1_C1 9.990e-03 1.366e-02 9.990e-03 
*LOADS
*RC U1311:D0 2.729e-04
*RC U776:C 2.729e-04
*RC add_1/a_reg_16_:D 2.729e-04
*END

*R_NET r_add_1_A\[15\] 1.993e-02
*DRIVER r_add_1_A_reg_15_:Q
*CELL fd4qd1_hd
*C2_R1_C1 9.965e-03 1.366e-02 9.965e-03 
*LOADS
*RC U1310:D0 2.722e-04
*RC U780:C 2.722e-04
*RC add_1/a_reg_15_:D 2.722e-04
*END

*R_NET r_add_1_A\[14\] 1.993e-02
*DRIVER r_add_1_A_reg_14_:Q
*CELL fd4qd1_hd
*C2_R1_C1 9.965e-03 1.366e-02 9.965e-03 
*LOADS
*RC U1309:D0 2.722e-04
*RC U784:C 2.722e-04
*RC add_1/a_reg_14_:D 2.722e-04
*END

*R_NET r_add_1_A\[13\] 1.998e-02
*DRIVER r_add_1_A_reg_13_:Q
*CELL fd4qd1_hd
*C2_R1_C1 9.990e-03 1.366e-02 9.990e-03 
*LOADS
*RC U1308:D0 2.729e-04
*RC U788:C 2.729e-04
*RC add_1/a_reg_13_:D 2.729e-04
*END

*R_NET r_add_1_A\[12\] 1.998e-02
*DRIVER r_add_1_A_reg_12_:Q
*CELL fd4qd1_hd
*C2_R1_C1 9.990e-03 1.366e-02 9.990e-03 
*LOADS
*RC U1307:D0 2.729e-04
*RC U792:C 2.729e-04
*RC add_1/a_reg_12_:D 2.729e-04
*END

*R_NET r_add_1_A\[11\] 1.993e-02
*DRIVER r_add_1_A_reg_11_:Q
*CELL fd4qd1_hd
*C2_R1_C1 9.965e-03 1.366e-02 9.965e-03 
*LOADS
*RC U1306:D0 2.722e-04
*RC U796:C 2.722e-04
*RC add_1/a_reg_11_:D 2.722e-04
*END

*R_NET r_add_1_A\[10\] 1.993e-02
*DRIVER r_add_1_A_reg_10_:Q
*CELL fd4qd1_hd
*C2_R1_C1 9.965e-03 1.366e-02 9.965e-03 
*LOADS
*RC U1305:D0 2.722e-04
*RC U800:C 2.722e-04
*RC add_1/a_reg_10_:D 2.722e-04
*END

*R_NET r_add_1_A\[9\] 1.998e-02
*DRIVER r_add_1_A_reg_9_:Q
*CELL fd4qd1_hd
*C2_R1_C1 9.990e-03 1.366e-02 9.990e-03 
*LOADS
*RC U1304:D0 2.729e-04
*RC U804:C 2.729e-04
*RC add_1/a_reg_9_:D 2.729e-04
*END

*R_NET r_add_1_A\[8\] 1.998e-02
*DRIVER r_add_1_A_reg_8_:Q
*CELL fd4qd1_hd
*C2_R1_C1 9.990e-03 1.366e-02 9.990e-03 
*LOADS
*RC U1303:D0 2.729e-04
*RC U808:C 2.729e-04
*RC add_1/a_reg_8_:D 2.729e-04
*END

*R_NET r_add_1_A\[7\] 1.993e-02
*DRIVER r_add_1_A_reg_7_:Q
*CELL fd4qd1_hd
*C2_R1_C1 9.965e-03 1.366e-02 9.965e-03 
*LOADS
*RC U1302:D0 2.722e-04
*RC U812:C 2.722e-04
*RC add_1/a_reg_7_:D 2.722e-04
*END

*R_NET r_add_1_A\[6\] 1.993e-02
*DRIVER r_add_1_A_reg_6_:Q
*CELL fd4qd1_hd
*C2_R1_C1 9.965e-03 1.366e-02 9.965e-03 
*LOADS
*RC U1301:D0 2.722e-04
*RC U816:C 2.722e-04
*RC add_1/a_reg_6_:D 2.722e-04
*END

*R_NET r_add_1_A\[5\] 1.998e-02
*DRIVER r_add_1_A_reg_5_:Q
*CELL fd4qd1_hd
*C2_R1_C1 9.990e-03 1.366e-02 9.990e-03 
*LOADS
*RC U1300:D0 2.729e-04
*RC U820:C 2.729e-04
*RC add_1/a_reg_5_:D 2.729e-04
*END

*R_NET r_add_1_A\[4\] 1.998e-02
*DRIVER r_add_1_A_reg_4_:Q
*CELL fd4qd1_hd
*C2_R1_C1 9.990e-03 1.366e-02 9.990e-03 
*LOADS
*RC U1299:D0 2.729e-04
*RC U824:C 2.729e-04
*RC add_1/a_reg_4_:D 2.729e-04
*END

*R_NET r_add_1_A\[3\] 1.993e-02
*DRIVER r_add_1_A_reg_3_:Q
*CELL fd4qd1_hd
*C2_R1_C1 9.965e-03 1.366e-02 9.965e-03 
*LOADS
*RC U1298:D0 2.722e-04
*RC U828:C 2.722e-04
*RC add_1/a_reg_3_:D 2.722e-04
*END

*R_NET r_add_1_A\[2\] 1.993e-02
*DRIVER r_add_1_A_reg_2_:Q
*CELL fd4qd1_hd
*C2_R1_C1 9.965e-03 1.366e-02 9.965e-03 
*LOADS
*RC U1297:D0 2.722e-04
*RC U832:C 2.722e-04
*RC add_1/a_reg_2_:D 2.722e-04
*END

*R_NET r_add_1_A\[1\] 1.998e-02
*DRIVER r_add_1_A_reg_1_:Q
*CELL fd4qd1_hd
*C2_R1_C1 9.990e-03 1.366e-02 9.990e-03 
*LOADS
*RC U1296:D0 2.729e-04
*RC U836:C 2.729e-04
*RC add_1/a_reg_1_:D 2.729e-04
*END

*R_NET r_add_1_A\[0\] 1.998e-02
*DRIVER r_add_1_A_reg_0_:Q
*CELL fd4qd1_hd
*C2_R1_C1 9.990e-03 1.366e-02 9.990e-03 
*LOADS
*RC U1295:D0 2.729e-04
*RC U840:C 2.729e-04
*RC add_1/a_reg_0_:D 2.729e-04
*END

*R_NET r_add_1_B\[31\] 1.883e-02
*DRIVER r_add_1_B_reg_31_:Q
*CELL fd4qd1_hd
*C2_R1_C1 9.415e-03 1.366e-02 9.415e-03 
*LOADS
*RC U1358:D0 2.572e-04
*RC U651:B 2.572e-04
*RC add_1/b_reg_31_:D 2.572e-04
*END

*R_NET r_add_1_B\[30\] 1.883e-02
*DRIVER r_add_1_B_reg_30_:Q
*CELL fd4qd1_hd
*C2_R1_C1 9.415e-03 1.366e-02 9.415e-03 
*LOADS
*RC U1357:D0 2.572e-04
*RC U653:B 2.572e-04
*RC add_1/b_reg_30_:D 2.572e-04
*END

*R_NET r_add_1_B\[29\] 1.888e-02
*DRIVER r_add_1_B_reg_29_:Q
*CELL fd4qd1_hd
*C2_R1_C1 9.440e-03 1.366e-02 9.440e-03 
*LOADS
*RC U1356:D0 2.579e-04
*RC U655:B 2.579e-04
*RC add_1/b_reg_29_:D 2.579e-04
*END

*R_NET r_add_1_B\[28\] 1.888e-02
*DRIVER r_add_1_B_reg_28_:Q
*CELL fd4qd1_hd
*C2_R1_C1 9.440e-03 1.366e-02 9.440e-03 
*LOADS
*RC U1355:D0 2.579e-04
*RC U657:B 2.579e-04
*RC add_1/b_reg_28_:D 2.579e-04
*END

*R_NET r_add_1_B\[27\] 1.883e-02
*DRIVER r_add_1_B_reg_27_:Q
*CELL fd4qd1_hd
*C2_R1_C1 9.415e-03 1.366e-02 9.415e-03 
*LOADS
*RC U1354:D0 2.572e-04
*RC U659:B 2.572e-04
*RC add_1/b_reg_27_:D 2.572e-04
*END

*R_NET r_add_1_B\[26\] 1.883e-02
*DRIVER r_add_1_B_reg_26_:Q
*CELL fd4qd1_hd
*C2_R1_C1 9.415e-03 1.366e-02 9.415e-03 
*LOADS
*RC U1353:D0 2.572e-04
*RC U661:B 2.572e-04
*RC add_1/b_reg_26_:D 2.572e-04
*END

*R_NET r_add_1_B\[25\] 1.888e-02
*DRIVER r_add_1_B_reg_25_:Q
*CELL fd4qd1_hd
*C2_R1_C1 9.440e-03 1.366e-02 9.440e-03 
*LOADS
*RC U1352:D0 2.579e-04
*RC U663:B 2.579e-04
*RC add_1/b_reg_25_:D 2.579e-04
*END

*R_NET r_add_1_B\[24\] 1.888e-02
*DRIVER r_add_1_B_reg_24_:Q
*CELL fd4qd1_hd
*C2_R1_C1 9.440e-03 1.366e-02 9.440e-03 
*LOADS
*RC U1351:D0 2.579e-04
*RC U665:B 2.579e-04
*RC add_1/b_reg_24_:D 2.579e-04
*END

*R_NET r_add_1_B\[23\] 1.883e-02
*DRIVER r_add_1_B_reg_23_:Q
*CELL fd4qd1_hd
*C2_R1_C1 9.415e-03 1.366e-02 9.415e-03 
*LOADS
*RC U1350:D0 2.572e-04
*RC U667:B 2.572e-04
*RC add_1/b_reg_23_:D 2.572e-04
*END

*R_NET r_add_1_B\[22\] 1.883e-02
*DRIVER r_add_1_B_reg_22_:Q
*CELL fd4qd1_hd
*C2_R1_C1 9.415e-03 1.366e-02 9.415e-03 
*LOADS
*RC U1349:D0 2.572e-04
*RC U669:B 2.572e-04
*RC add_1/b_reg_22_:D 2.572e-04
*END

*R_NET r_add_1_B\[21\] 1.888e-02
*DRIVER r_add_1_B_reg_21_:Q
*CELL fd4qd1_hd
*C2_R1_C1 9.440e-03 1.366e-02 9.440e-03 
*LOADS
*RC U1348:D0 2.579e-04
*RC U671:B 2.579e-04
*RC add_1/b_reg_21_:D 2.579e-04
*END

*R_NET r_add_1_B\[20\] 1.888e-02
*DRIVER r_add_1_B_reg_20_:Q
*CELL fd4qd1_hd
*C2_R1_C1 9.440e-03 1.366e-02 9.440e-03 
*LOADS
*RC U1347:D0 2.579e-04
*RC U673:B 2.579e-04
*RC add_1/b_reg_20_:D 2.579e-04
*END

*R_NET r_add_1_B\[19\] 1.883e-02
*DRIVER r_add_1_B_reg_19_:Q
*CELL fd4qd1_hd
*C2_R1_C1 9.415e-03 1.366e-02 9.415e-03 
*LOADS
*RC U1346:D0 2.572e-04
*RC U675:B 2.572e-04
*RC add_1/b_reg_19_:D 2.572e-04
*END

*R_NET r_add_1_B\[18\] 1.883e-02
*DRIVER r_add_1_B_reg_18_:Q
*CELL fd4qd1_hd
*C2_R1_C1 9.415e-03 1.366e-02 9.415e-03 
*LOADS
*RC U1345:D0 2.572e-04
*RC U677:B 2.572e-04
*RC add_1/b_reg_18_:D 2.572e-04
*END

*R_NET r_add_1_B\[17\] 1.888e-02
*DRIVER r_add_1_B_reg_17_:Q
*CELL fd4qd1_hd
*C2_R1_C1 9.440e-03 1.366e-02 9.440e-03 
*LOADS
*RC U1344:D0 2.579e-04
*RC U679:B 2.579e-04
*RC add_1/b_reg_17_:D 2.579e-04
*END

*R_NET r_add_1_B\[16\] 1.888e-02
*DRIVER r_add_1_B_reg_16_:Q
*CELL fd4qd1_hd
*C2_R1_C1 9.440e-03 1.366e-02 9.440e-03 
*LOADS
*RC U1343:D0 2.579e-04
*RC U681:B 2.579e-04
*RC add_1/b_reg_16_:D 2.579e-04
*END

*R_NET r_add_1_B\[15\] 1.883e-02
*DRIVER r_add_1_B_reg_15_:Q
*CELL fd4qd1_hd
*C2_R1_C1 9.415e-03 1.366e-02 9.415e-03 
*LOADS
*RC U1342:D0 2.572e-04
*RC U683:B 2.572e-04
*RC add_1/b_reg_15_:D 2.572e-04
*END

*R_NET r_add_1_B\[14\] 1.883e-02
*DRIVER r_add_1_B_reg_14_:Q
*CELL fd4qd1_hd
*C2_R1_C1 9.415e-03 1.366e-02 9.415e-03 
*LOADS
*RC U1341:D0 2.572e-04
*RC U685:B 2.572e-04
*RC add_1/b_reg_14_:D 2.572e-04
*END

*R_NET r_add_1_B\[13\] 1.888e-02
*DRIVER r_add_1_B_reg_13_:Q
*CELL fd4qd1_hd
*C2_R1_C1 9.440e-03 1.366e-02 9.440e-03 
*LOADS
*RC U1340:D0 2.579e-04
*RC U687:B 2.579e-04
*RC add_1/b_reg_13_:D 2.579e-04
*END

*R_NET r_add_1_B\[12\] 1.888e-02
*DRIVER r_add_1_B_reg_12_:Q
*CELL fd4qd1_hd
*C2_R1_C1 9.440e-03 1.366e-02 9.440e-03 
*LOADS
*RC U1339:D0 2.579e-04
*RC U689:B 2.579e-04
*RC add_1/b_reg_12_:D 2.579e-04
*END

*R_NET r_add_1_B\[11\] 1.883e-02
*DRIVER r_add_1_B_reg_11_:Q
*CELL fd4qd1_hd
*C2_R1_C1 9.415e-03 1.366e-02 9.415e-03 
*LOADS
*RC U1338:D0 2.572e-04
*RC U691:B 2.572e-04
*RC add_1/b_reg_11_:D 2.572e-04
*END

*R_NET r_add_1_B\[10\] 1.883e-02
*DRIVER r_add_1_B_reg_10_:Q
*CELL fd4qd1_hd
*C2_R1_C1 9.415e-03 1.366e-02 9.415e-03 
*LOADS
*RC U1337:D0 2.572e-04
*RC U693:B 2.572e-04
*RC add_1/b_reg_10_:D 2.572e-04
*END

*R_NET r_add_1_B\[9\] 1.888e-02
*DRIVER r_add_1_B_reg_9_:Q
*CELL fd4qd1_hd
*C2_R1_C1 9.440e-03 1.366e-02 9.440e-03 
*LOADS
*RC U1336:D0 2.579e-04
*RC U695:B 2.579e-04
*RC add_1/b_reg_9_:D 2.579e-04
*END

*R_NET r_add_1_B\[8\] 1.888e-02
*DRIVER r_add_1_B_reg_8_:Q
*CELL fd4qd1_hd
*C2_R1_C1 9.440e-03 1.366e-02 9.440e-03 
*LOADS
*RC U1335:D0 2.579e-04
*RC U697:B 2.579e-04
*RC add_1/b_reg_8_:D 2.579e-04
*END

*R_NET r_add_1_B\[7\] 1.883e-02
*DRIVER r_add_1_B_reg_7_:Q
*CELL fd4qd1_hd
*C2_R1_C1 9.415e-03 1.366e-02 9.415e-03 
*LOADS
*RC U1334:D0 2.572e-04
*RC U699:B 2.572e-04
*RC add_1/b_reg_7_:D 2.572e-04
*END

*R_NET r_add_1_B\[6\] 1.883e-02
*DRIVER r_add_1_B_reg_6_:Q
*CELL fd4qd1_hd
*C2_R1_C1 9.415e-03 1.366e-02 9.415e-03 
*LOADS
*RC U1333:D0 2.572e-04
*RC U701:B 2.572e-04
*RC add_1/b_reg_6_:D 2.572e-04
*END

*R_NET r_add_1_B\[5\] 1.888e-02
*DRIVER r_add_1_B_reg_5_:Q
*CELL fd4qd1_hd
*C2_R1_C1 9.440e-03 1.366e-02 9.440e-03 
*LOADS
*RC U1332:D0 2.579e-04
*RC U703:B 2.579e-04
*RC add_1/b_reg_5_:D 2.579e-04
*END

*R_NET r_add_1_B\[4\] 1.888e-02
*DRIVER r_add_1_B_reg_4_:Q
*CELL fd4qd1_hd
*C2_R1_C1 9.440e-03 1.366e-02 9.440e-03 
*LOADS
*RC U1331:D0 2.579e-04
*RC U705:B 2.579e-04
*RC add_1/b_reg_4_:D 2.579e-04
*END
