*SPEF "IEEE 1481-1999"
*DESIGN "spi_master"
<<<<<<< HEAD
*DATE "Wed May 13 09:57:05 2020"
=======
*DATE "Wed May 13 11:40:09 2020"
>>>>>>> jin
*VENDOR "SYNOPSYS INC"
*PROGRAM "Synopsys Design Compiler cmos"
*VERSION "F-2011.09-SP5-3"
*DESIGN_FLOW "SYNTHESIS"
*DIVIDER /
*DELIMITER :
*BUS_DELIMITER []
*T_UNIT 1.0 NS
*C_UNIT 1.0 PF
*R_UNIT 1.0 KOHM
*L_UNIT 1.0 HENRY

*PORTS

i_RSTN I *L 0.000e+00 *S 0.000e+00 0.000e+00 
i_CLK I *L 0.000e+00 *S 0.000e+00 0.000e+00 
i_TX_Byte\[7\] I *L 0.000e+00 *S 0.000e+00 0.000e+00 
i_TX_Byte\[6\] I *L 0.000e+00 *S 0.000e+00 0.000e+00 
i_TX_Byte\[5\] I *L 0.000e+00 *S 0.000e+00 0.000e+00 
i_TX_Byte\[4\] I *L 0.000e+00 *S 0.000e+00 0.000e+00 
i_TX_Byte\[3\] I *L 0.000e+00 *S 0.000e+00 0.000e+00 
i_TX_Byte\[2\] I *L 0.000e+00 *S 0.000e+00 0.000e+00 
i_TX_Byte\[1\] I *L 0.000e+00 *S 0.000e+00 0.000e+00 
i_TX_Byte\[0\] I *L 0.000e+00 *S 0.000e+00 0.000e+00 
i_TX_DV I *L 0.000e+00 *S 0.000e+00 0.000e+00 
o_TX_Ready O *L 0.000e+00 *S 7.878e-02 7.524e-02 
o_RX_DV O *L 0.000e+00 *S 3.493e-02 3.549e-02 
o_RX_Byte\[7\] O *L 0.000e+00 *S 7.421e-02 1.073e-01 
o_RX_Byte\[6\] O *L 0.000e+00 *S 7.421e-02 1.073e-01 
o_RX_Byte\[5\] O *L 0.000e+00 *S 7.421e-02 1.073e-01 
o_RX_Byte\[4\] O *L 0.000e+00 *S 7.421e-02 1.073e-01 
o_RX_Byte\[3\] O *L 0.000e+00 *S 7.421e-02 1.073e-01 
o_RX_Byte\[2\] O *L 0.000e+00 *S 7.421e-02 1.073e-01 
o_RX_Byte\[1\] O *L 0.000e+00 *S 7.421e-02 1.073e-01 
o_RX_Byte\[0\] O *L 0.000e+00 *S 6.910e-02 1.009e-01 
o_SPI_Clk O *L 0.000e+00 *S 3.493e-02 3.549e-02 
i_SPI_MISO I *L 0.000e+00 *S 0.000e+00 0.000e+00 
o_SPI_MOSI O *L 0.000e+00 *S 6.972e-02 1.016e-01 

*R_NET N20 1.592e-02
*DRIVER r_TX_Bit_Count_reg_0_:Q
*CELL fd3d1_hd
*C2_R1_C1 7.960e-03 9.100e-03 7.960e-03 
*LOADS
*RC U275:S0 1.449e-04
*RC U276:S0 1.449e-04
*END

*R_NET N21 1.188e-02
*DRIVER r_TX_Bit_Count_reg_1_:Q
*CELL fd3d1_hd
*C2_R1_C1 5.940e-03 9.100e-03 5.940e-03 
*LOADS
*RC U275:S1 1.081e-04
*RC U276:S1 1.081e-04
*END

*R_NET N22 1.711e-02
*DRIVER r_TX_Bit_Count_reg_2_:Q
*CELL fd3qd1_hd
*C2_R1_C1 8.555e-03 9.460e-03 8.555e-03 
*LOADS
*RC U156:A 1.619e-04
*RC U165:S 1.619e-04
*RC U224:A 1.619e-04
*END

*R_NET i_CLK 2.088e-01
*DRIVER i_CLK
*CELL NULL
*C2_R1_C1 1.044e-01 5.548e-02 1.044e-01 
*LOADS
*RC r_RX_Bit_Count_reg_2_:CK 1.158e-02
*RC o_TX_Ready_reg:CK 1.158e-02
*RC r_SPI_Clk_Count_reg_13_:CK 1.158e-02
*RC r_TX_Byte_reg_6_:CK 1.158e-02
*RC r_TX_Byte_reg_2_:CK 1.158e-02
*RC r_TX_Byte_reg_5_:CK 1.158e-02
*RC r_TX_Byte_reg_1_:CK 1.158e-02
*RC r_TX_Byte_reg_4_:CK 1.158e-02
*RC r_TX_Byte_reg_0_:CK 1.158e-02
*RC r_TX_Byte_reg_7_:CK 1.158e-02
*RC r_TX_Byte_reg_3_:CK 1.158e-02
*RC o_SPI_MOSI_reg:CK 1.158e-02
*RC o_RX_Byte_reg_5_:CK 1.158e-02
*RC o_RX_Byte_reg_2_:CK 1.158e-02
*RC o_RX_Byte_reg_6_:CK 1.158e-02
*RC o_RX_Byte_reg_1_:CK 1.158e-02
*RC o_RX_Byte_reg_3_:CK 1.158e-02
*RC o_RX_Byte_reg_7_:CK 1.158e-02
*RC r_SPI_Clk_Count_reg_6_:CK 1.158e-02
*RC r_Trailing_Edge_reg:CK 1.158e-02
*RC o_RX_Byte_reg_4_:CK 1.158e-02
*RC r_SPI_Clk_Count_reg_0_:CK 1.158e-02
*RC r_SPI_Clk_Count_reg_1_:CK 1.158e-02
*RC r_Leading_Edge_reg:CK 1.158e-02
*RC r_SPI_Clk_Count_reg_3_:CK 1.158e-02
*RC o_RX_Byte_reg_0_:CK 1.158e-02
*RC r_SPI_Clk_Count_reg_8_:CK 1.158e-02
*RC r_SPI_Clk_Count_reg_4_:CK 1.158e-02
*RC r_SPI_Clk_Count_reg_7_:CK 1.158e-02
*RC r_SPI_Clk_Count_reg_5_:CK 1.158e-02
*RC r_SPI_Clk_Count_reg_2_:CK 1.158e-02
*RC r_SPI_Clk_reg:CK 1.158e-02
*RC r_SPI_Clk_Count_reg_9_:CK 1.158e-02
*RC r_SPI_Clk_Count_reg_10_:CK 1.158e-02
*RC r_SPI_Clk_Edges_reg_0_:CK 1.158e-02
*RC r_SPI_Clk_Edges_reg_1_:CK 1.158e-02
*RC r_SPI_Clk_Edges_reg_2_:CK 1.158e-02
*RC r_SPI_Clk_Edges_reg_4_:CK 1.158e-02
*RC r_SPI_Clk_Edges_reg_3_:CK 1.158e-02
*RC r_SPI_Clk_Count_reg_11_:CK 1.158e-02
*RC r_SPI_Clk_Edges_reg_5_:CK 1.158e-02
*RC r_SPI_Clk_Edges_reg_6_:CK 1.158e-02
*RC r_SPI_Clk_Count_reg_12_:CK 1.158e-02
*RC o_SPI_Clk_reg:CK 1.158e-02
*RC r_TX_Bit_Count_reg_2_:CK 1.158e-02
*RC o_RX_DV_reg:CK 1.158e-02
*RC r_RX_Bit_Count_reg_0_:CK 1.158e-02
*RC r_TX_Bit_Count_reg_0_:CK 1.158e-02
*RC r_TX_Bit_Count_reg_1_:CK 1.158e-02
*RC r_RX_Bit_Count_reg_1_:CK 1.158e-02
*END

*R_NET i_TX_Byte\[7\] 4.780e-03
*DRIVER i_TX_Byte\[7\]
*CELL NULL
*C2_R1_C1 2.390e-03 7.370e-03 2.390e-03 
*LOADS
*RC U172:B 3.523e-05
*END

*R_NET i_TX_Byte\[6\] 4.780e-03
*DRIVER i_TX_Byte\[6\]
*CELL NULL
*C2_R1_C1 2.390e-03 7.370e-03 2.390e-03 
*LOADS
*RC U173:B 3.523e-05
*END

*R_NET i_TX_Byte\[5\] 4.780e-03
*DRIVER i_TX_Byte\[5\]
*CELL NULL
*C2_R1_C1 2.390e-03 7.370e-03 2.390e-03 
*LOADS
*RC U168:B 3.523e-05
*END

*R_NET i_TX_Byte\[4\] 4.780e-03
*DRIVER i_TX_Byte\[4\]
*CELL NULL
*C2_R1_C1 2.390e-03 7.370e-03 2.390e-03 
*LOADS
*RC U171:B 3.523e-05
*END

*R_NET i_TX_Byte\[3\] 4.780e-03
*DRIVER i_TX_Byte\[3\]
*CELL NULL
*C2_R1_C1 2.390e-03 7.370e-03 2.390e-03 
*LOADS
*RC U169:B 3.523e-05
*END

*R_NET i_TX_Byte\[2\] 4.780e-03
*DRIVER i_TX_Byte\[2\]
*CELL NULL
*C2_R1_C1 2.390e-03 7.370e-03 2.390e-03 
*LOADS
*RC U170:B 3.523e-05
*END

*R_NET i_TX_Byte\[1\] 4.780e-03
*DRIVER i_TX_Byte\[1\]
*CELL NULL
*C2_R1_C1 2.390e-03 7.370e-03 2.390e-03 
*LOADS
*RC U167:B 3.523e-05
*END

*R_NET i_TX_Byte\[0\] 4.780e-03
*DRIVER i_TX_Byte\[0\]
*CELL NULL
*C2_R1_C1 2.390e-03 7.370e-03 2.390e-03 
*LOADS
*RC U166:B 3.523e-05
*END

*R_NET i_TX_DV 5.201e-02
*DRIVER i_TX_DV
*CELL NULL
*C2_R1_C1 2.601e-02 2.139e-02 2.601e-02 
*LOADS
*RC U105:A 1.113e-03
*RC U166:A 1.113e-03
*RC U167:A 1.113e-03
*RC U168:A 1.113e-03
*RC U169:A 1.113e-03
*RC U170:A 1.113e-03
*RC U171:A 1.113e-03
*RC U172:A 1.113e-03
*RC U173:A 1.113e-03
*RC U194:A 1.113e-03
*RC U204:C 1.113e-03
*END

*R_NET o_TX_Ready 7.890e-03
*DRIVER o_TX_Ready_reg:QN
*CELL fd3d1_hd
*C2_R1_C1 3.945e-03 9.100e-03 3.945e-03 
*LOADS
*RC U226:A 7.180e-05
*RC o_TX_Ready 7.180e-05
*END

*R_NET o_RX_DV 3.150e-03
*DRIVER o_RX_DV_reg:QN
*CELL fd3d1_hd
*C2_R1_C1 1.575e-03 7.370e-03 1.575e-03 
*LOADS
*RC o_RX_DV 2.322e-05
*END

*R_NET o_RX_Byte\[7\] 7.560e-03
*DRIVER o_RX_Byte_reg_7_:Q
*CELL fd2qd1_hd
*C2_R1_C1 3.780e-03 9.100e-03 3.780e-03 
*LOADS
*RC U139:B 6.880e-05
*RC o_RX_Byte\[7\] 6.880e-05
*END

*R_NET o_RX_Byte\[6\] 7.560e-03
*DRIVER o_RX_Byte_reg_6_:Q
*CELL fd2qd1_hd
*C2_R1_C1 3.780e-03 9.100e-03 3.780e-03 
*LOADS
*RC U145:B 6.880e-05
*RC o_RX_Byte\[6\] 6.880e-05
*END

*R_NET o_RX_Byte\[5\] 7.560e-03
*DRIVER o_RX_Byte_reg_5_:Q
*CELL fd2qd1_hd
*C2_R1_C1 3.780e-03 9.100e-03 3.780e-03 
*LOADS
*RC U149:B 6.880e-05
*RC o_RX_Byte\[5\] 6.880e-05
*END

*R_NET o_RX_Byte\[4\] 7.560e-03
*DRIVER o_RX_Byte_reg_4_:Q
*CELL fd2qd1_hd
*C2_R1_C1 3.780e-03 9.100e-03 3.780e-03 
*LOADS
*RC U147:B 6.880e-05
*RC o_RX_Byte\[4\] 6.880e-05
*END

*R_NET o_RX_Byte\[3\] 7.560e-03
*DRIVER o_RX_Byte_reg_3_:Q
*CELL fd2qd1_hd
*C2_R1_C1 3.780e-03 9.100e-03 3.780e-03 
*LOADS
*RC U141:B 6.880e-05
*RC o_RX_Byte\[3\] 6.880e-05
*END

*R_NET o_RX_Byte\[2\] 7.560e-03
*DRIVER o_RX_Byte_reg_2_:Q
*CELL fd2qd1_hd
*C2_R1_C1 3.780e-03 9.100e-03 3.780e-03 
*LOADS
*RC U143:B 6.880e-05
*RC o_RX_Byte\[2\] 6.880e-05
*END

*R_NET o_RX_Byte\[1\] 7.560e-03
*DRIVER o_RX_Byte_reg_1_:Q
*CELL fd2qd1_hd
*C2_R1_C1 3.780e-03 9.100e-03 3.780e-03 
*LOADS
*RC U151:B 6.880e-05
*RC o_RX_Byte\[1\] 6.880e-05
*END

*R_NET o_RX_Byte\[0\] 6.980e-03
*DRIVER o_RX_Byte_reg_0_:Q
*CELL fd2qd1_hd
*C2_R1_C1 3.490e-03 9.100e-03 3.490e-03 
*LOADS
*RC U162:C 6.352e-05
*RC o_RX_Byte\[0\] 6.352e-05
*END

*R_NET o_SPI_Clk 3.150e-03
*DRIVER o_SPI_Clk_reg:QN
*CELL fd3d1_hd
*C2_R1_C1 1.575e-03 7.370e-03 1.575e-03 
*LOADS
*RC o_SPI_Clk 2.322e-05
*END

*R_NET i_SPI_MISO 9.200e-03
*DRIVER i_SPI_MISO
*CELL NULL
*C2_R1_C1 4.600e-03 9.100e-03 4.600e-03 
*LOADS
*RC U162:B 8.372e-05
*RC U177:A 8.372e-05
*END

*R_NET o_SPI_MOSI 7.050e-03
*DRIVER o_SPI_MOSI_reg:Q
*CELL fd2qd1_hd
*C2_R1_C1 3.525e-03 9.100e-03 3.525e-03 
*LOADS
*RC U164:C 6.416e-05
*RC o_SPI_MOSI 6.416e-05
*END

*R_NET r_SPI_Clk_Edges\[6\] 5.220e-03
*DRIVER r_SPI_Clk_Edges_reg_6_:Q
*CELL fd2qd1_hd
*C2_R1_C1 2.610e-03 7.370e-03 2.610e-03 
*LOADS
*RC U193:A 3.847e-05
*END

*R_NET r_SPI_Clk_Edges\[5\] 1.654e-02
*DRIVER r_SPI_Clk_Edges_reg_5_:Q
*CELL fd2qd1_hd
*C2_R1_C1 8.270e-03 9.460e-03 8.270e-03 
*LOADS
*RC U192:A 1.565e-04
*RC U205:B 1.565e-04
*RC U218:A 1.565e-04
*END

*R_NET r_SPI_Clk_Edges\[4\] 1.047e-02
*DRIVER r_SPI_Clk_Edges_reg_4_:Q
*CELL fd2qd1_hd
*C2_R1_C1 5.235e-03 9.100e-03 5.235e-03 
*LOADS
*RC U103:C 9.528e-05
*RC U215:C 9.528e-05
*END

*R_NET r_SPI_Clk_Edges\[3\] 1.647e-02
*DRIVER r_SPI_Clk_Edges_reg_3_:Q
*CELL fd2qd1_hd
*C2_R1_C1 8.235e-03 9.460e-03 8.235e-03 
*LOADS
*RC U191:A 1.558e-04
*RC U214:A 1.558e-04
*RC U215:A 1.558e-04
*END

*R_NET r_SPI_Clk_Edges\[2\] 9.900e-03
*DRIVER r_SPI_Clk_Edges_reg_2_:Q
*CELL fd2qd1_hd
*C2_R1_C1 4.950e-03 9.100e-03 4.950e-03 
*LOADS
*RC U200:A 9.009e-05
*RC U211:A 9.009e-05
*END

*R_NET r_SPI_Clk_Edges\[1\] 2.248e-02
*DRIVER r_SPI_Clk_Edges_reg_1_:Q
*CELL fd2qd1_hd
*C2_R1_C1 1.124e-02 1.094e-02 1.124e-02 
*LOADS
*RC U159:A 2.459e-04
*RC U200:B 2.459e-04
*RC U209:A 2.459e-04
*RC U210:A 2.459e-04
*END

*R_NET r_SPI_Clk_Edges\[0\] 2.300e-02
*DRIVER r_SPI_Clk_Edges_reg_0_:Q
*CELL fd2qd1_hd
*C2_R1_C1 1.150e-02 1.094e-02 1.150e-02 
*LOADS
*RC U206:A 2.516e-04
*RC U200:C 2.516e-04
*RC U207:A 2.516e-04
*RC U209:B 2.516e-04
*END

*R_NET r_SPI_Clk 1.027e-02
*DRIVER r_SPI_Clk_reg:Q
*CELL fd2qd1_hd
*C2_R1_C1 5.135e-03 9.100e-03 5.135e-03 
*LOADS
*RC U220:A 9.346e-05
*RC U221:C 9.346e-05
*END

*R_NET r_SPI_Clk_Count\[13\] 1.008e-02
*DRIVER r_SPI_Clk_Count_reg_13_:Q
*CELL fd2qd1_hd
*C2_R1_C1 5.040e-03 9.100e-03 5.040e-03 
*LOADS
*RC U182:A 9.173e-05
*RC U196:B 9.173e-05
*END

*R_NET r_SPI_Clk_Count\[12\] 1.626e-02
*DRIVER r_SPI_Clk_Count_reg_12_:Q
*CELL fd2qd1_hd
*C2_R1_C1 8.130e-03 9.460e-03 8.130e-03 
*LOADS
*RC U137:A 1.538e-04
*RC U188:A 1.538e-04
*RC U198:D 1.538e-04
*END

*R_NET r_SPI_Clk_Count\[11\] 2.169e-02
*DRIVER r_SPI_Clk_Count_reg_11_:Q
*CELL fd2qd1_hd
*C2_R1_C1 1.084e-02 1.094e-02 1.084e-02 
*LOADS
*RC U121:A 2.373e-04
*RC U270:A 2.373e-04
*RC U157:A 2.373e-04
*RC U198:A 2.373e-04
*END

*R_NET r_SPI_Clk_Count\[10\] 1.615e-02
*DRIVER r_SPI_Clk_Count_reg_10_:Q
*CELL fd2qd1_hd
*C2_R1_C1 8.075e-03 9.460e-03 8.075e-03 
*LOADS
*RC U104:A 1.528e-04
*RC U266:A 1.528e-04
*RC U198:C 1.528e-04
*END

*R_NET r_SPI_Clk_Count\[9\] 1.667e-02
*DRIVER r_SPI_Clk_Count_reg_9_:Q
*CELL fd2qd1_hd
*C2_R1_C1 8.335e-03 9.460e-03 8.335e-03 
*LOADS
*RC U183:A 1.577e-04
*RC U198:B 1.577e-04
*RC U265:A 1.577e-04
*END

*R_NET r_SPI_Clk_Count\[8\] 1.611e-02
*DRIVER r_SPI_Clk_Count_reg_8_:Q
*CELL fd2qd1_hd
*C2_R1_C1 8.055e-03 9.460e-03 8.055e-03 
*LOADS
*RC U187:A 1.524e-04
*RC U160:B 1.524e-04
*RC U197:B 1.524e-04
*END

*R_NET r_SPI_Clk_Count\[7\] 2.284e-02
*DRIVER r_SPI_Clk_Count_reg_7_:Q
*CELL fd2qd1_hd
*C2_R1_C1 1.142e-02 1.094e-02 1.142e-02 
*LOADS
*RC U117:A 2.499e-04
*RC U259:A 2.499e-04
*RC U197:D 2.499e-04
*RC U260:A 2.499e-04
*END

*R_NET r_SPI_Clk_Count\[6\] 1.614e-02
*DRIVER r_SPI_Clk_Count_reg_6_:Q
*CELL fd2qd1_hd
*C2_R1_C1 8.070e-03 9.460e-03 8.070e-03 
*LOADS
*RC U186:A 1.527e-04
*RC U163:B 1.527e-04
*RC U197:C 1.527e-04
*END

*R_NET r_SPI_Clk_Count\[5\] 2.218e-02
*DRIVER r_SPI_Clk_Count_reg_5_:Q
*CELL fd2qd1_hd
*C2_R1_C1 1.109e-02 1.094e-02 1.109e-02 
*LOADS
*RC U115:A 2.426e-04
*RC U253:A 2.426e-04
*RC U196:A 2.426e-04
*RC U254:A 2.426e-04
*END

*R_NET r_SPI_Clk_Count\[4\] 1.049e-02
*DRIVER r_SPI_Clk_Count_reg_4_:Q
*CELL fd2qd1_hd
*C2_R1_C1 5.245e-03 9.100e-03 5.245e-03 
*LOADS
*RC U185:A 9.546e-05
*RC U197:A 9.546e-05
*END

*R_NET r_SPI_Clk_Count\[3\] 1.566e-02
*DRIVER r_SPI_Clk_Count_reg_3_:Q
*CELL fd2qd1_hd
*C2_R1_C1 7.830e-03 9.460e-03 7.830e-03 
*LOADS
*RC U189:A 1.481e-04
*RC U161:A 1.481e-04
*RC U201:A 1.481e-04
*END

*R_NET r_SPI_Clk_Count\[2\] 1.018e-02
*DRIVER r_SPI_Clk_Count_reg_2_:Q
*CELL fd2qd1_hd
*C2_R1_C1 5.090e-03 9.100e-03 5.090e-03 
*LOADS
*RC U184:A 9.264e-05
*RC U199:A 9.264e-05
*END

*R_NET r_SPI_Clk_Count\[1\] 2.139e-02
*DRIVER r_SPI_Clk_Count_reg_1_:Q
*CELL fd2qd1_hd
*C2_R1_C1 1.069e-02 1.094e-02 1.069e-02 
*LOADS
*RC U120:B 2.340e-04
*RC U122:A 2.340e-04
*RC U138:A 2.340e-04
*RC U241:A 2.340e-04
*END

*R_NET r_SPI_Clk_Count\[0\] 1.528e-02
*DRIVER r_SPI_Clk_Count_reg_0_:Q
*CELL fd2qd1_hd
*C2_R1_C1 7.640e-03 9.460e-03 7.640e-03 
*LOADS
*RC U120:A 1.445e-04
*RC U132:A 1.445e-04
*RC U190:A 1.445e-04
*END

*R_NET r_Leading_Edge 1.028e-02
*DRIVER r_Leading_Edge_reg:Q
*CELL fd2qd1_hd
*C2_R1_C1 5.140e-03 9.100e-03 5.140e-03 
*LOADS
*RC U126:B 9.355e-05
*RC U222:A 9.355e-05
*END

*R_NET r_Trailing_Edge 5.220e-03
*DRIVER r_Trailing_Edge_reg:Q
*CELL fd2qd1_hd
*C2_R1_C1 2.610e-03 7.370e-03 2.610e-03 
*LOADS
*RC U180:A 3.847e-05
*END

*R_NET N107 9.420e-03
*DRIVER U201:Y
*CELL nr4d1_hd
*C2_R1_C1 4.710e-03 9.100e-03 4.710e-03 
*LOADS
*RC U123:A 8.572e-05
*RC r_Leading_Edge_reg:D 8.572e-05
*END

*R_NET N108 9.540e-03
*DRIVER U202:Y
*CELL nr2d1_hd
*C2_R1_C1 4.770e-03 9.100e-03 4.770e-03 
*LOADS
*RC U123:B 8.681e-05
*RC r_Trailing_Edge_reg:D 8.681e-05
*END

*R_NET r_TX_Byte\[7\] 9.780e-03
*DRIVER r_TX_Byte_reg_7_:Q
*CELL fd2qd1_hd
*C2_R1_C1 4.890e-03 9.100e-03 4.890e-03 
*LOADS
*RC U172:C 8.900e-05
*RC U276:D3 8.900e-05
*END

*R_NET r_TX_Byte\[6\] 9.600e-03
*DRIVER r_TX_Byte_reg_6_:Q
*CELL fd2qd1_hd
*C2_R1_C1 4.800e-03 9.100e-03 4.800e-03 
*LOADS
*RC U173:C 8.736e-05
*RC U276:D2 8.736e-05
*END

*R_NET r_TX_Byte\[5\] 9.620e-03
*DRIVER r_TX_Byte_reg_5_:Q
*CELL fd2qd1_hd
*C2_R1_C1 4.810e-03 9.100e-03 4.810e-03 
*LOADS
*RC U168:C 8.754e-05
*RC U276:D1 8.754e-05
*END

*R_NET r_TX_Byte\[4\] 9.630e-03
*DRIVER r_TX_Byte_reg_4_:Q
*CELL fd2qd1_hd
*C2_R1_C1 4.815e-03 9.100e-03 4.815e-03 
*LOADS
*RC U171:C 8.763e-05
*RC U276:D0 8.763e-05
*END

*R_NET r_TX_Byte\[3\] 9.780e-03
*DRIVER r_TX_Byte_reg_3_:Q
*CELL fd2qd1_hd
*C2_R1_C1 4.890e-03 9.100e-03 4.890e-03 
*LOADS
*RC U169:C 8.900e-05
*RC U275:D3 8.900e-05
*END

*R_NET r_TX_Byte\[2\] 9.600e-03
*DRIVER r_TX_Byte_reg_2_:Q
*CELL fd2qd1_hd
*C2_R1_C1 4.800e-03 9.100e-03 4.800e-03 
*LOADS
*RC U170:C 8.736e-05
*RC U275:D2 8.736e-05
*END

*R_NET r_TX_Byte\[1\] 9.620e-03
*DRIVER r_TX_Byte_reg_1_:Q
*CELL fd2qd1_hd
*C2_R1_C1 4.810e-03 9.100e-03 4.810e-03 
*LOADS
*RC U167:C 8.754e-05
*RC U275:D1 8.754e-05
*END

*R_NET r_TX_Byte\[0\] 9.630e-03
*DRIVER r_TX_Byte_reg_0_:Q
*CELL fd2qd1_hd
*C2_R1_C1 4.815e-03 9.100e-03 4.815e-03 
*LOADS
*RC U166:C 8.763e-05
*RC U275:D0 8.763e-05
*END

*R_NET N120 4.780e-03
*DRIVER U165:Y
*CELL mx2d1_hd
*C2_R1_C1 2.390e-03 7.370e-03 2.390e-03 
*LOADS
*RC U164:B 3.523e-05
*END

*R_NET r_RX_Bit_Count_2_ 2.163e-02
*DRIVER r_RX_Bit_Count_reg_2_:Q
*CELL fd3qd1_hd
*C2_R1_C1 1.082e-02 1.094e-02 1.082e-02 
*LOADS
*RC U148:A 2.366e-04
*RC U150:A 2.366e-04
*RC U178:A 2.366e-04
*RC U232:A 2.366e-04
*END

*R_NET n6 4.680e-03
*DRIVER U166:Y
*CELL scg2d1_hd
*C2_R1_C1 2.340e-03 7.370e-03 2.340e-03 
*LOADS
*RC r_TX_Byte_reg_0_:D 3.449e-05
*END

*R_NET n7 4.680e-03
*DRIVER U167:Y
*CELL scg2d1_hd
*C2_R1_C1 2.340e-03 7.370e-03 2.340e-03 
*LOADS
*RC r_TX_Byte_reg_1_:D 3.449e-05
*END

*R_NET n8 4.680e-03
*DRIVER U170:Y
*CELL scg2d1_hd
*C2_R1_C1 2.340e-03 7.370e-03 2.340e-03 
*LOADS
*RC r_TX_Byte_reg_2_:D 3.449e-05
*END

*R_NET n9 4.680e-03
*DRIVER U169:Y
*CELL scg2d1_hd
*C2_R1_C1 2.340e-03 7.370e-03 2.340e-03 
*LOADS
*RC r_TX_Byte_reg_3_:D 3.449e-05
*END

*R_NET n10 4.680e-03
*DRIVER U171:Y
*CELL scg2d1_hd
*C2_R1_C1 2.340e-03 7.370e-03 2.340e-03 
*LOADS
*RC r_TX_Byte_reg_4_:D 3.449e-05
*END

*R_NET n11 4.680e-03
*DRIVER U168:Y
*CELL scg2d1_hd
*C2_R1_C1 2.340e-03 7.370e-03 2.340e-03 
*LOADS
*RC r_TX_Byte_reg_5_:D 3.449e-05
*END

*R_NET n12 4.680e-03
*DRIVER U173:Y
*CELL scg2d1_hd
*C2_R1_C1 2.340e-03 7.370e-03 2.340e-03 
*LOADS
*RC r_TX_Byte_reg_6_:D 3.449e-05
*END

*R_NET n13 4.680e-03
*DRIVER U172:Y
*CELL scg2d1_hd
*C2_R1_C1 2.340e-03 7.370e-03 2.340e-03 
*LOADS
*RC r_TX_Byte_reg_7_:D 3.449e-05
*END

*R_NET n14 4.610e-03
*DRIVER U128:Y
*CELL clknd2d1_hd
*C2_R1_C1 2.305e-03 7.370e-03 2.305e-03 
*LOADS
*RC o_TX_Ready_reg:D 3.398e-05
*END

*R_NET n15 3.766e-02
*DRIVER o_TX_Ready_reg:Q
*CELL fd3d1_hd
*C2_R1_C1 1.883e-02 1.715e-02 1.883e-02 
*LOADS
*RC U126:A 6.459e-04
*RC U222:C 6.459e-04
*RC U223:C 6.459e-04
*RC U224:C 6.459e-04
*RC U225:C 6.459e-04
*RC U227:D 6.459e-04
*RC U228:C 6.459e-04
*END

*R_NET n16 4.680e-03
*DRIVER U242:Y
*CELL oa22d1_hd
*C2_R1_C1 2.340e-03 7.370e-03 2.340e-03 
*LOADS
*RC r_SPI_Clk_Count_reg_1_:D 3.449e-05
*END

*R_NET n17 4.680e-03
*DRIVER U244:Y
*CELL oa22d1_hd
*C2_R1_C1 2.340e-03 7.370e-03 2.340e-03 
*LOADS
*RC r_SPI_Clk_Count_reg_2_:D 3.449e-05
*END

*R_NET n18 4.680e-03
*DRIVER U161:Y
*CELL scg2d1_hd
*C2_R1_C1 2.340e-03 7.370e-03 2.340e-03 
*LOADS
*RC r_SPI_Clk_Count_reg_3_:D 3.449e-05
*END

*R_NET n19 4.680e-03
*DRIVER U250:Y
*CELL oa22d1_hd
*C2_R1_C1 2.340e-03 7.370e-03 2.340e-03 
*LOADS
*RC r_SPI_Clk_Count_reg_4_:D 3.449e-05
*END

*R_NET n20 4.680e-03
*DRIVER U254:Y
*CELL ao22d1_hd
*C2_R1_C1 2.340e-03 7.370e-03 2.340e-03 
*LOADS
*RC r_SPI_Clk_Count_reg_5_:D 3.449e-05
*END

*R_NET n21 4.680e-03
*DRIVER U256:Y
*CELL oa22d1_hd
*C2_R1_C1 2.340e-03 7.370e-03 2.340e-03 
*LOADS
*RC r_SPI_Clk_Count_reg_6_:D 3.449e-05
*END

*R_NET n22 4.680e-03
*DRIVER U260:Y
*CELL ao22d1_hd
*C2_R1_C1 2.340e-03 7.370e-03 2.340e-03 
*LOADS
*RC r_SPI_Clk_Count_reg_7_:D 3.449e-05
*END

*R_NET n23 4.680e-03
*DRIVER U262:Y
*CELL oa22d1_hd
*C2_R1_C1 2.340e-03 7.370e-03 2.340e-03 
*LOADS
*RC r_SPI_Clk_Count_reg_8_:D 3.449e-05
*END

*R_NET n24 4.680e-03
*DRIVER U265:Y
*CELL ao22d1_hd
*C2_R1_C1 2.340e-03 7.370e-03 2.340e-03 
*LOADS
*RC r_SPI_Clk_Count_reg_9_:D 3.449e-05
*END

*R_NET n25 4.680e-03
*DRIVER U268:Y
*CELL oa22d1_hd
*C2_R1_C1 2.340e-03 7.370e-03 2.340e-03 
*LOADS
*RC r_SPI_Clk_Count_reg_10_:D 3.449e-05
*END

*R_NET n26 4.680e-03
*DRIVER U157:Y
*CELL scg2d1_hd
*C2_R1_C1 2.340e-03 7.370e-03 2.340e-03 
*LOADS
*RC r_SPI_Clk_Count_reg_11_:D 3.449e-05
*END

*R_NET n27 4.680e-03
*DRIVER U272:Y
*CELL ao21d1_hd
*C2_R1_C1 2.340e-03 7.370e-03 2.340e-03 
*LOADS
*RC r_SPI_Clk_Count_reg_12_:D 3.449e-05
*END

*R_NET n28 4.680e-03
*DRIVER U273:Y
*CELL oa22d1_hd
*C2_R1_C1 2.340e-03 7.370e-03 2.340e-03 
*LOADS
*RC r_SPI_Clk_Count_reg_13_:D 3.449e-05
*END

*R_NET n29 4.680e-03
*DRIVER U274:Y
*CELL ao21d1_hd
*C2_R1_C1 2.340e-03 7.370e-03 2.340e-03 
*LOADS
*RC r_SPI_Clk_Count_reg_0_:D 3.449e-05
*END

*R_NET n31 2.058e-02
*DRIVER U153:Y
*CELL clknd2d1_hd
*C2_R1_C1 1.029e-02 1.094e-02 1.029e-02 
*LOADS
*RC o_RX_DV_reg:D 2.251e-04
*RC U162:A 2.251e-04
*RC U228:D 2.251e-04
*RC U229:A 2.251e-04
*END

*R_NET n36 1.029e-02
*DRIVER r_TX_Bit_Count_reg_1_:QN
*CELL fd3d1_hd
*C2_R1_C1 5.145e-03 9.100e-03 5.145e-03 
*LOADS
*RC U127:A 9.364e-05
*RC U223:A 9.364e-05
*END

*R_NET n37 1.041e-02
*DRIVER r_TX_Bit_Count_reg_0_:QN
*CELL fd3d1_hd
*C2_R1_C1 5.205e-03 9.100e-03 5.205e-03 
*LOADS
*RC U124:B 9.473e-05
*RC U222:B 9.473e-05
*END

*R_NET n38 5.190e-03
*DRIVER r_RX_Bit_Count_reg_1_:QN
*CELL fd3d1_hd
*C2_R1_C1 2.595e-03 7.370e-03 2.595e-03 
*LOADS
*RC U107:B 3.825e-05
*END

*R_NET n39 2.161e-02
*DRIVER r_RX_Bit_Count_reg_0_:QN
*CELL fd3d1_hd
*C2_R1_C1 1.080e-02 1.094e-02 1.080e-02 
*LOADS
*RC U144:A 2.364e-04
*RC U146:A 2.364e-04
*RC U155:A 2.364e-04
*RC U230:A 2.364e-04
*END

*R_NET n73 4.680e-03
*DRIVER U239:Y
*CELL oa21d1_hd
*C2_R1_C1 2.340e-03 7.370e-03 2.340e-03 
*LOADS
*RC o_RX_Byte_reg_7_:D 3.449e-05
*END

*R_NET n74 4.680e-03
*DRIVER U238:Y
*CELL oa21d1_hd
*C2_R1_C1 2.340e-03 7.370e-03 2.340e-03 
*LOADS
*RC o_RX_Byte_reg_6_:D 3.449e-05
*END

*R_NET n75 4.680e-03
*DRIVER U236:Y
*CELL oa21d1_hd
*C2_R1_C1 2.340e-03 7.370e-03 2.340e-03 
*LOADS
*RC o_RX_Byte_reg_5_:D 3.449e-05
*END

*R_NET n76 4.680e-03
*DRIVER U235:Y
*CELL oa21d1_hd
*C2_R1_C1 2.340e-03 7.370e-03 2.340e-03 
*LOADS
*RC o_RX_Byte_reg_4_:D 3.449e-05
*END

*R_NET n77 4.680e-03
*DRIVER U234:Y
*CELL oa21d1_hd
*C2_R1_C1 2.340e-03 7.370e-03 2.340e-03 
*LOADS
*RC o_RX_Byte_reg_3_:D 3.449e-05
*END

*R_NET n78 4.680e-03
*DRIVER U233:Y
*CELL oa21d1_hd
*C2_R1_C1 2.340e-03 7.370e-03 2.340e-03 
*LOADS
*RC o_RX_Byte_reg_2_:D 3.449e-05
*END

*R_NET n79 4.680e-03
*DRIVER U231:Y
*CELL oa21d1_hd
*C2_R1_C1 2.340e-03 7.370e-03 2.340e-03 
*LOADS
*RC o_RX_Byte_reg_1_:D 3.449e-05
*END

*R_NET n80 4.680e-03
*DRIVER U162:Y
*CELL scg10d1_hd
*C2_R1_C1 2.340e-03 7.370e-03 2.340e-03 
*LOADS
*RC o_RX_Byte_reg_0_:D 3.449e-05
*END

*R_NET n81 4.620e-03
*DRIVER U228:Y
*CELL oa211d1_hd
*C2_R1_C1 2.310e-03 7.370e-03 2.310e-03 
*LOADS
*RC r_RX_Bit_Count_reg_2_:D 3.405e-05
*END

*R_NET n82 4.610e-03
*DRIVER U227:Y
*CELL scg17d1_hd
*C2_R1_C1 2.305e-03 7.370e-03 2.305e-03 
*LOADS
*RC r_RX_Bit_Count_reg_1_:D 3.398e-05
*END

*R_NET n83 4.610e-03
*DRIVER U225:Y
*CELL oa211d1_hd
*C2_R1_C1 2.305e-03 7.370e-03 2.305e-03 
*LOADS
*RC r_RX_Bit_Count_reg_0_:D 3.398e-05
*END

*R_NET n84 4.620e-03
*DRIVER U224:Y
*CELL oa211d1_hd
*C2_R1_C1 2.310e-03 7.370e-03 2.310e-03 
*LOADS
*RC r_TX_Bit_Count_reg_2_:D 3.405e-05
*END

*R_NET n85 4.610e-03
*DRIVER U223:Y
*CELL oa211d1_hd
*C2_R1_C1 2.305e-03 7.370e-03 2.305e-03 
*LOADS
*RC r_TX_Bit_Count_reg_1_:D 3.398e-05
*END

*R_NET n86 4.610e-03
*DRIVER U222:Y
*CELL oa211d1_hd
*C2_R1_C1 2.305e-03 7.370e-03 2.305e-03 
*LOADS
*RC r_TX_Bit_Count_reg_0_:D 3.398e-05
*END

*R_NET n87 4.680e-03
*DRIVER U164:Y
*CELL scg2d1_hd
*C2_R1_C1 2.340e-03 7.370e-03 2.340e-03 
*LOADS
*RC o_SPI_MOSI_reg:D 3.449e-05
*END

*R_NET n88 4.680e-03
*DRIVER U221:Y
*CELL ao22d1_hd
*C2_R1_C1 2.340e-03 7.370e-03 2.340e-03 
*LOADS
*RC r_SPI_Clk_reg:D 3.449e-05
*END

*R_NET n89 4.680e-03
*DRIVER U219:Y
*CELL oa22d1_hd
*C2_R1_C1 2.340e-03 7.370e-03 2.340e-03 
*LOADS
*RC r_SPI_Clk_Edges_reg_6_:D 3.449e-05
*END

*R_NET n90 4.680e-03
*DRIVER U218:Y
*CELL ao22d1_hd
*C2_R1_C1 2.340e-03 7.370e-03 2.340e-03 
*LOADS
*RC r_SPI_Clk_Edges_reg_5_:D 3.449e-05
*END

*R_NET n91 4.680e-03
*DRIVER U216:Y
*CELL nd3d1_hd
*C2_R1_C1 2.340e-03 7.370e-03 2.340e-03 
*LOADS
*RC r_SPI_Clk_Edges_reg_4_:D 3.449e-05
*END

*R_NET n92 4.680e-03
*DRIVER U214:Y
*CELL ao22d1_hd
*C2_R1_C1 2.340e-03 7.370e-03 2.340e-03 
*LOADS
*RC r_SPI_Clk_Edges_reg_3_:D 3.449e-05
*END

*R_NET n93 4.680e-03
*DRIVER U211:Y
*CELL scg16d1_hd
*C2_R1_C1 2.340e-03 7.370e-03 2.340e-03 
*LOADS
*RC r_SPI_Clk_Edges_reg_2_:D 3.449e-05
*END

*R_NET n94 4.680e-03
*DRIVER U159:Y
*CELL scg2d1_hd
*C2_R1_C1 2.340e-03 7.370e-03 2.340e-03 
*LOADS
*RC r_SPI_Clk_Edges_reg_1_:D 3.449e-05
*END

*R_NET n95 4.680e-03
*DRIVER U207:Y
*CELL ao22d1_hd
*C2_R1_C1 2.340e-03 7.370e-03 2.340e-03 
*LOADS
*RC r_SPI_Clk_Edges_reg_0_:D 3.449e-05
*END

*R_NET n100 2.644e-02
*DRIVER r_RX_Bit_Count_reg_0_:Q
*CELL fd3d1_hd
*C2_R1_C1 1.322e-02 1.549e-02 1.322e-02 
*LOADS
*RC U140:B 4.096e-04
*RC U142:B 4.096e-04
*RC U154:A 4.096e-04
*RC U179:A 4.096e-04
*RC U225:A 4.096e-04
*END

*R_NET n101 9.140e-03
*DRIVER r_RX_Bit_Count_reg_1_:Q
*CELL fd3d1_hd
*C2_R1_C1 4.570e-03 9.100e-03 4.570e-03 
*LOADS
*RC U106:B 8.317e-05
*RC U227:A 8.317e-05
*END

*R_NET n102 5.740e-03
*DRIVER U198:Y
*CELL nr4d1_hd
*C2_R1_C1 2.870e-03 7.370e-03 2.870e-03 
*LOADS
*RC U199:D 4.230e-05
*END

*R_NET n103 5.770e-03
*DRIVER U197:Y
*CELL nr4d1_hd
*C2_R1_C1 2.885e-03 7.370e-03 2.885e-03 
*LOADS
*RC U199:C 4.252e-05
*END

*R_NET n104 5.740e-03
*DRIVER U196:Y
*CELL nr2d1_hd
*C2_R1_C1 2.870e-03 7.370e-03 2.870e-03 
*LOADS
*RC U199:B 4.230e-05
*END

*R_NET n105 6.180e-03
*DRIVER U138:Y
*CELL clknd2d1_hd
*C2_R1_C1 3.090e-03 7.370e-03 3.090e-03 
*LOADS
*RC U201:D 4.555e-05
*END

*R_NET n106 1.054e-02
*DRIVER U199:Y
*CELL nd4d1_hd
*C2_R1_C1 5.270e-03 9.100e-03 5.270e-03 
*LOADS
*RC U122:C 9.591e-05
*RC U201:B 9.591e-05
*END

*R_NET n108 1.027e-02
*DRIVER U110:Y
*CELL clknd2d1_hd
*C2_R1_C1 5.135e-03 9.100e-03 5.135e-03 
*LOADS
*RC U112:A 9.346e-05
*RC U207:C 9.346e-05
*END

*R_NET n109 1.104e-02
*DRIVER U206:Y
*CELL ivd1_hd
*C2_R1_C1 5.520e-03 9.100e-03 5.520e-03 
*LOADS
*RC U207:D 1.005e-04
*RC U208:B 1.005e-04
*END

*R_NET n110 4.680e-03
*DRIVER U209:Y
*CELL nr2d1_hd
*C2_R1_C1 2.340e-03 7.370e-03 2.340e-03 
*LOADS
*RC U159:C 3.449e-05
*END

*R_NET n111 9.640e-03
*DRIVER U208:Y
*CELL oa21d1_hd
*C2_R1_C1 4.820e-03 9.100e-03 4.820e-03 
*LOADS
*RC U159:B 8.772e-05
*RC U210:C 8.772e-05
*END

*R_NET n112 6.010e-03
*DRIVER U210:Y
*CELL ao21d1_hd
*C2_R1_C1 3.005e-03 7.370e-03 3.005e-03 
*LOADS
*RC U211:B 4.429e-05
*END

*R_NET n113 2.263e-02
*DRIVER U109:Y
*CELL clknd2d1_hd
*C2_R1_C1 1.131e-02 1.094e-02 1.131e-02 
*LOADS
*RC U110:A 2.476e-04
*RC U207:B 2.476e-04
*RC U208:C 2.476e-04
*RC U212:C 2.476e-04
*END

*R_NET n114 1.532e-02
*DRIVER U200:Y
*CELL nr3d1_hd
*C2_R1_C1 7.660e-03 9.460e-03 7.660e-03 
*LOADS
*RC U103:A 1.449e-04
*RC U111:A 1.449e-04
*RC U212:A 1.449e-04
*END

*R_NET n115 9.840e-03
*DRIVER U191:Y
*CELL ivd1_hd
*C2_R1_C1 4.920e-03 9.100e-03 4.920e-03 
*LOADS
*RC U103:B 8.954e-05
*RC U214:D 8.954e-05
*END

*R_NET n116 1.067e-02
*DRIVER U111:Y
*CELL clknd2d1_hd
*C2_R1_C1 5.335e-03 9.100e-03 5.335e-03 
*LOADS
*RC U211:C 9.710e-05
*RC U214:C 9.710e-05
*END

*R_NET n117 5.800e-03
*DRIVER U213:Y
*CELL ivd1_hd
*C2_R1_C1 2.900e-03 7.370e-03 2.900e-03 
*LOADS
*RC U214:B 4.275e-05
*END

*R_NET n118 2.626e-02
*DRIVER U112:Y
*CELL ivd1_hd
*C2_R1_C1 1.313e-02 1.549e-02 1.313e-02 
*LOADS
*RC U111:B 4.068e-04
*RC U113:B 4.068e-04
*RC U159:D 4.068e-04
*RC U205:A 4.068e-04
*RC U210:B 4.068e-04
*END

*R_NET n119 1.537e-02
*DRIVER U103:Y
*CELL scg12d1_hd
*C2_R1_C1 7.685e-03 9.460e-03 7.685e-03 
*LOADS
*RC U108:D 1.454e-04
*RC U113:A 1.454e-04
*RC U204:A 1.454e-04
*END

*R_NET n120 1.036e-02
*DRIVER U212:Y
*CELL oa21d1_hd
*C2_R1_C1 5.180e-03 9.100e-03 5.180e-03 
*LOADS
*RC U213:A 9.428e-05
*RC U215:B 9.428e-05
*END

*R_NET n121 5.600e-03
*DRIVER U215:Y
*CELL oa21d1_hd
*C2_R1_C1 2.800e-03 7.370e-03 2.800e-03 
*LOADS
*RC U216:C 4.127e-05
*END

*R_NET n122 1.008e-02
*DRIVER U204:Y
*CELL ao21d1_hd
*C2_R1_C1 5.040e-03 9.100e-03 5.040e-03 
*LOADS
*RC U205:C 9.173e-05
*RC U217:A 9.173e-05
*END

*R_NET n123 5.800e-03
*DRIVER U217:Y
*CELL ivd1_hd
*C2_R1_C1 2.900e-03 7.370e-03 2.900e-03 
*LOADS
*RC U218:B 4.275e-05
*END

*R_NET n124 1.536e-02
*DRIVER U192:Y
*CELL ivd1_hd
*C2_R1_C1 7.680e-03 9.460e-03 7.680e-03 
*LOADS
*RC U108:C 1.453e-04
*RC U129:B 1.453e-04
*RC U218:D 1.453e-04
*END

*R_NET n125 1.700e-02
*DRIVER U113:Y
*CELL clknd2d1_hd
*C2_R1_C1 8.500e-03 9.460e-03 8.500e-03 
*LOADS
*RC U216:B 1.608e-04
*RC U218:C 1.608e-04
*RC U219:D 1.608e-04
*END

*R_NET n126 5.810e-03
*DRIVER U129:Y
*CELL clknd2d1_hd
*C2_R1_C1 2.905e-03 7.370e-03 2.905e-03 
*LOADS
*RC U219:C 4.282e-05
*END

*R_NET n127 1.532e-02
*DRIVER U193:Y
*CELL ivd1_hd
*C2_R1_C1 7.660e-03 9.460e-03 7.660e-03 
*LOADS
*RC U108:A 1.449e-04
*RC U129:A 1.449e-04
*RC U219:B 1.449e-04
*END

*R_NET n128 5.790e-03
*DRIVER U205:Y
*CELL ao21d1_hd
*C2_R1_C1 2.895e-03 7.370e-03 2.895e-03 
*LOADS
*RC U219:A 4.267e-05
*END

*R_NET n129 1.103e-02
*DRIVER U203:Y
*CELL ivd1_hd
*C2_R1_C1 5.515e-03 9.100e-03 5.515e-03 
*LOADS
*RC U204:B 1.004e-04
*RC U221:D 1.004e-04
*END

*R_NET n130 9.630e-03
*DRIVER U220:Y
*CELL ivd1_hd
*C2_R1_C1 4.815e-03 9.100e-03 4.815e-03 
*LOADS
*RC o_SPI_Clk_reg:D 8.763e-05
*RC U221:B 8.763e-05
*END

*R_NET n131 1.582e-02
*DRIVER U123:Y
*CELL nr2d1_hd
*C2_R1_C1 7.910e-03 9.460e-03 7.910e-03 
*LOADS
*RC U109:B 1.497e-04
*RC U203:A 1.497e-04
*RC U221:A 1.497e-04
*END

*R_NET n132 9.110e-03
*DRIVER U126:Y
*CELL clknd2d1_hd
*C2_R1_C1 4.555e-03 9.100e-03 4.555e-03 
*LOADS
*RC U164:D 8.290e-05
*RC U176:A 8.290e-05
*END

*R_NET n133 9.150e-03
*DRIVER U176:Y
*CELL ivd1_hd
*C2_R1_C1 4.575e-03 9.100e-03 4.575e-03 
*LOADS
*RC U124:A 8.327e-05
*RC U164:A 8.327e-05
*END

*R_NET n134 1.005e-02
*DRIVER U124:Y
*CELL clknd2d1_hd
*C2_R1_C1 5.025e-03 9.100e-03 5.025e-03 
*LOADS
*RC U175:A 9.146e-05
*RC U222:D 9.146e-05
*END

*R_NET n135 1.041e-02
*DRIVER U175:Y
*CELL ivd1_hd
*C2_R1_C1 5.205e-03 9.100e-03 5.205e-03 
*LOADS
*RC U127:B 9.473e-05
*RC U223:B 9.473e-05
*END

*R_NET n136 5.610e-03
*DRIVER U156:Y
*CELL clknd2d1_hd
*C2_R1_C1 2.805e-03 7.370e-03 2.805e-03 
*LOADS
*RC U224:D 4.135e-05
*END

*R_NET n137 1.646e-02
*DRIVER U127:Y
*CELL clknd2d1_hd
*C2_R1_C1 8.230e-03 9.460e-03 8.230e-03 
*LOADS
*RC U156:B 1.557e-04
*RC U223:D 1.557e-04
*RC U224:B 1.557e-04
*END

*R_NET n138 5.610e-03
*DRIVER U154:Y
*CELL clknd2d1_hd
*C2_R1_C1 2.805e-03 7.370e-03 2.805e-03 
*LOADS
*RC U225:D 4.135e-05
*END

*R_NET n139 1.649e-02
*DRIVER U180:Y
*CELL ivd1_hd
*C2_R1_C1 8.245e-03 9.460e-03 8.245e-03 
*LOADS
*RC U154:B 1.560e-04
*RC U225:B 1.560e-04
*RC U226:B 1.560e-04
*END

*R_NET n140 4.700e-03
*DRIVER U155:Y
*CELL clknd2d1_hd
*C2_R1_C1 2.350e-03 7.370e-03 2.350e-03 
*LOADS
*RC U227:B 3.464e-05
*END

*R_NET n141 4.640e-03
*DRIVER U229:Y
*CELL ivd1_hd
*C2_R1_C1 2.320e-03 7.370e-03 2.320e-03 
*LOADS
*RC U162:D 3.420e-05
*END

*R_NET n142 1.050e-02
*DRIVER U107:Y
*CELL clknd2d1_hd
*C2_R1_C1 5.250e-03 9.100e-03 5.250e-03 
*LOADS
*RC U179:B 9.555e-05
*RC U230:B 9.555e-05
*END

*R_NET n143 5.570e-03
*DRIVER U151:Y
*CELL clknd2d1_hd
*C2_R1_C1 2.785e-03 7.370e-03 2.785e-03 
*LOADS
*RC U231:C 4.105e-05
*END

*R_NET n144 1.034e-02
*DRIVER U152:Y
*CELL clknd2d1_hd
*C2_R1_C1 5.170e-03 9.100e-03 5.170e-03 
*LOADS
*RC U151:A 9.409e-05
*RC U231:B 9.409e-05
*END

*R_NET n145 1.525e-02
*DRIVER U226:Y
*CELL nr2d1_hd
*C2_R1_C1 7.625e-03 9.460e-03 7.625e-03 
*LOADS
*RC U106:A 1.443e-04
*RC U107:A 1.443e-04
*RC U155:B 1.443e-04
*END

*R_NET n146 5.570e-03
*DRIVER U143:Y
*CELL clknd2d1_hd
*C2_R1_C1 2.785e-03 7.370e-03 2.785e-03 
*LOADS
*RC U233:C 4.105e-05
*END

*R_NET n147 1.034e-02
*DRIVER U144:Y
*CELL clknd2d1_hd
*C2_R1_C1 5.170e-03 9.100e-03 5.170e-03 
*LOADS
*RC U143:A 9.409e-05
*RC U233:B 9.409e-05
*END

*R_NET n148 9.610e-03
*DRIVER U232:Y
*CELL nr2d1_hd
*C2_R1_C1 4.805e-03 9.100e-03 4.805e-03 
*LOADS
*RC U142:A 8.745e-05
*RC U144:B 8.745e-05
*END

*R_NET n149 5.570e-03
*DRIVER U141:Y
*CELL clknd2d1_hd
*C2_R1_C1 2.785e-03 7.370e-03 2.785e-03 
*LOADS
*RC U234:C 4.105e-05
*END

*R_NET n150 1.034e-02
*DRIVER U142:Y
*CELL clknd2d1_hd
*C2_R1_C1 5.170e-03 9.100e-03 5.170e-03 
*LOADS
*RC U141:A 9.409e-05
*RC U234:B 9.409e-05
*END

*R_NET n151 2.144e-02
*DRIVER U179:Y
*CELL nr2d1_hd
*C2_R1_C1 1.072e-02 1.094e-02 1.072e-02 
*LOADS
*RC U148:B 2.346e-04
*RC U153:A 2.346e-04
*RC U227:C 2.346e-04
*RC U228:A 2.346e-04
*END

*R_NET n152 5.570e-03
*DRIVER U147:Y
*CELL clknd2d1_hd