*SPEF "IEEE 1481-1999"
*DESIGN "float_adder"
*DATE "Thu Aug 27 13:00:51 2020"
*VENDOR "SYNOPSYS INC"
*PROGRAM "Synopsys Design Compiler cmos"
*VERSION "F-2011.09-SP5-3"
*DESIGN_FLOW "SYNTHESIS"
*DIVIDER /
*DELIMITER :
*BUS_DELIMITER []
*T_UNIT 1.0 NS
*C_UNIT 1.0 PF
*R_UNIT 1.0 KOHM
*L_UNIT 1.0 HENRY

*PORTS

i_A\[31\] I *L 0.000e+00 *S 0.000e+00 0.000e+00 
i_A\[30\] I *L 0.000e+00 *S 0.000e+00 0.000e+00 
i_A\[29\] I *L 0.000e+00 *S 0.000e+00 0.000e+00 
i_A\[28\] I *L 0.000e+00 *S 0.000e+00 0.000e+00 
i_A\[27\] I *L 0.000e+00 *S 0.000e+00 0.000e+00 
i_A\[26\] I *L 0.000e+00 *S 0.000e+00 0.000e+00 
i_A\[25\] I *L 0.000e+00 *S 0.000e+00 0.000e+00 
i_A\[24\] I *L 0.000e+00 *S 0.000e+00 0.000e+00 
i_A\[23\] I *L 0.000e+00 *S 0.000e+00 0.000e+00 
i_A\[22\] I *L 0.000e+00 *S 0.000e+00 0.000e+00 
i_A\[21\] I *L 0.000e+00 *S 0.000e+00 0.000e+00 
i_A\[20\] I *L 0.000e+00 *S 0.000e+00 0.000e+00 
i_A\[19\] I *L 0.000e+00 *S 0.000e+00 0.000e+00 
i_A\[18\] I *L 0.000e+00 *S 0.000e+00 0.000e+00 
i_A\[17\] I *L 0.000e+00 *S 0.000e+00 0.000e+00 
i_A\[16\] I *L 0.000e+00 *S 0.000e+00 0.000e+00 
i_A\[15\] I *L 0.000e+00 *S 0.000e+00 0.000e+00 
i_A\[14\] I *L 0.000e+00 *S 0.000e+00 0.000e+00 
i_A\[13\] I *L 0.000e+00 *S 0.000e+00 0.000e+00 
i_A\[12\] I *L 0.000e+00 *S 0.000e+00 0.000e+00 
i_A\[11\] I *L 0.000e+00 *S 0.000e+00 0.000e+00 
i_A\[10\] I *L 0.000e+00 *S 0.000e+00 0.000e+00 
i_A\[9\] I *L 0.000e+00 *S 0.000e+00 0.000e+00 
i_A\[8\] I *L 0.000e+00 *S 0.000e+00 0.000e+00 
i_A\[7\] I *L 0.000e+00 *S 0.000e+00 0.000e+00 
i_A\[6\] I *L 0.000e+00 *S 0.000e+00 0.000e+00 
i_A\[5\] I *L 0.000e+00 *S 0.000e+00 0.000e+00 
i_A\[4\] I *L 0.000e+00 *S 0.000e+00 0.000e+00 
i_A\[3\] I *L 0.000e+00 *S 0.000e+00 0.000e+00 
i_A\[2\] I *L 0.000e+00 *S 0.000e+00 0.000e+00 
i_A\[1\] I *L 0.000e+00 *S 0.000e+00 0.000e+00 
i_A\[0\] I *L 0.000e+00 *S 0.000e+00 0.000e+00 
i_B\[31\] I *L 0.000e+00 *S 0.000e+00 0.000e+00 
i_B\[30\] I *L 0.000e+00 *S 0.000e+00 0.000e+00 
i_B\[29\] I *L 0.000e+00 *S 0.000e+00 0.000e+00 
i_B\[28\] I *L 0.000e+00 *S 0.000e+00 0.000e+00 
i_B\[27\] I *L 0.000e+00 *S 0.000e+00 0.000e+00 
i_B\[26\] I *L 0.000e+00 *S 0.000e+00 0.000e+00 
i_B\[25\] I *L 0.000e+00 *S 0.000e+00 0.000e+00 
i_B\[24\] I *L 0.000e+00 *S 0.000e+00 0.000e+00 
i_B\[23\] I *L 0.000e+00 *S 0.000e+00 0.000e+00 
i_B\[22\] I *L 0.000e+00 *S 0.000e+00 0.000e+00 
i_B\[21\] I *L 0.000e+00 *S 0.000e+00 0.000e+00 
i_B\[20\] I *L 0.000e+00 *S 0.000e+00 0.000e+00 
i_B\[19\] I *L 0.000e+00 *S 0.000e+00 0.000e+00 
i_B\[18\] I *L 0.000e+00 *S 0.000e+00 0.000e+00 
i_B\[17\] I *L 0.000e+00 *S 0.000e+00 0.000e+00 
i_B\[16\] I *L 0.000e+00 *S 0.000e+00 0.000e+00 
i_B\[15\] I *L 0.000e+00 *S 0.000e+00 0.000e+00 
i_B\[14\] I *L 0.000e+00 *S 0.000e+00 0.000e+00 
i_B\[13\] I *L 0.000e+00 *S 0.000e+00 0.000e+00 
i_B\[12\] I *L 0.000e+00 *S 0.000e+00 0.000e+00 
i_B\[11\] I *L 0.000e+00 *S 0.000e+00 0.000e+00 
i_B\[10\] I *L 0.000e+00 *S 0.000e+00 0.000e+00 
i_B\[9\] I *L 0.000e+00 *S 0.000e+00 0.000e+00 
i_B\[8\] I *L 0.000e+00 *S 0.000e+00 0.000e+00 
i_B\[7\] I *L 0.000e+00 *S 0.000e+00 0.000e+00 
i_B\[6\] I *L 0.000e+00 *S 0.000e+00 0.000e+00 
i_B\[5\] I *L 0.000e+00 *S 0.000e+00 0.000e+00 
i_B\[4\] I *L 0.000e+00 *S 0.000e+00 0.000e+00 
i_B\[3\] I *L 0.000e+00 *S 0.000e+00 0.000e+00 
i_B\[2\] I *L 0.000e+00 *S 0.000e+00 0.000e+00 
i_B\[1\] I *L 0.000e+00 *S 0.000e+00 0.000e+00 
i_B\[0\] I *L 0.000e+00 *S 0.000e+00 0.000e+00 
i_AB_STB I *L 0.000e+00 *S 0.000e+00 0.000e+00 
o_AB_ACK O *L 1.035e-02 *S 1.604e-01 1.323e-01 
o_Z\[31\] O *L 1.035e-02 *S 1.237e-01 1.056e-01 
o_Z\[30\] O *L 1.035e-02 *S 1.237e-01 1.056e-01 
o_Z\[29\] O *L 1.035e-02 *S 1.237e-01 1.056e-01 
o_Z\[28\] O *L 1.035e-02 *S 1.237e-01 1.056e-01 
o_Z\[27\] O *L 1.035e-02 *S 1.237e-01 1.056e-01 
o_Z\[26\] O *L 1.035e-02 *S 1.237e-01 1.056e-01 
o_Z\[25\] O *L 1.035e-02 *S 1.237e-01 1.056e-01 
o_Z\[24\] O *L 1.035e-02 *S 1.237e-01 1.056e-01 
o_Z\[23\] O *L 1.035e-02 *S 1.237e-01 1.056e-01 
o_Z\[22\] O *L 1.035e-02 *S 1.237e-01 1.056e-01 
o_Z\[21\] O *L 1.035e-02 *S 1.237e-01 1.056e-01 
o_Z\[20\] O *L 1.035e-02 *S 1.237e-01 1.056e-01 
o_Z\[19\] O *L 1.035e-02 *S 1.237e-01 1.056e-01 
o_Z\[18\] O *L 1.035e-02 *S 1.237e-01 1.056e-01 
o_Z\[17\] O *L 1.035e-02 *S 1.237e-01 1.056e-01 
o_Z\[16\] O *L 1.035e-02 *S 1.237e-01 1.056e-01 
o_Z\[15\] O *L 1.035e-02 *S 1.237e-01 1.056e-01 
o_Z\[14\] O *L 1.035e-02 *S 1.237e-01 1.056e-01 
o_Z\[13\] O *L 1.035e-02 *S 1.237e-01 1.056e-01 
o_Z\[12\] O *L 1.035e-02 *S 1.237e-01 1.056e-01 
o_Z\[11\] O *L 1.035e-02 *S 1.237e-01 1.056e-01 
o_Z\[10\] O *L 1.035e-02 *S 1.237e-01 1.056e-01 
o_Z\[9\] O *L 1.035e-02 *S 1.237e-01 1.056e-01 
o_Z\[8\] O *L 1.035e-02 *S 1.237e-01 1.056e-01 
o_Z\[7\] O *L 1.035e-02 *S 1.237e-01 1.056e-01 
o_Z\[6\] O *L 1.035e-02 *S 1.237e-01 1.056e-01 
o_Z\[5\] O *L 1.035e-02 *S 1.237e-01 1.056e-01 
o_Z\[4\] O *L 1.035e-02 *S 1.237e-01 1.056e-01 
o_Z\[3\] O *L 1.035e-02 *S 1.237e-01 1.056e-01 
o_Z\[2\] O *L 1.035e-02 *S 1.237e-01 1.056e-01 
o_Z\[1\] O *L 1.035e-02 *S 1.237e-01 1.056e-01 
o_Z\[0\] O *L 1.035e-02 *S 1.237e-01 1.056e-01 
o_Z_STB O *L 1.035e-02 *S 1.604e-01 1.323e-01 
i_Z_ACK I *L 0.000e+00 *S 0.000e+00 0.000e+00 
i_CLK I *L 0.000e+00 *S 0.000e+00 0.000e+00 
i_RST I *L 0.000e+00 *S 0.000e+00 0.000e+00 

*R_NET i_A\[31\] 4.500e-03
*DRIVER i_A\[31\]
*CELL NULL
*C2_R1_C1 2.250e-03 7.370e-03 2.250e-03 
*LOADS
*RC a_reg_31_:D 3.316e-05
*END

*R_NET i_A\[30\] 4.500e-03
*DRIVER i_A\[30\]
*CELL NULL
*C2_R1_C1 2.250e-03 7.370e-03 2.250e-03 
*LOADS
*RC a_reg_30_:D 3.316e-05
*END

*R_NET i_A\[29\] 4.550e-03
*DRIVER i_A\[29\]
*CELL NULL
*C2_R1_C1 2.275e-03 7.370e-03 2.275e-03 
*LOADS
*RC a_reg_29_:D 3.353e-05
*END

*R_NET i_A\[28\] 4.550e-03
*DRIVER i_A\[28\]
*CELL NULL
*C2_R1_C1 2.275e-03 7.370e-03 2.275e-03 
*LOADS
*RC a_reg_28_:D 3.353e-05
*END

*R_NET i_A\[27\] 4.500e-03
*DRIVER i_A\[27\]
*CELL NULL
*C2_R1_C1 2.250e-03 7.370e-03 2.250e-03 
*LOADS
*RC a_reg_27_:D 3.316e-05
*END

*R_NET i_A\[26\] 4.500e-03
*DRIVER i_A\[26\]
*CELL NULL
*C2_R1_C1 2.250e-03 7.370e-03 2.250e-03 
*LOADS
*RC a_reg_26_:D 3.316e-05
*END

*R_NET i_A\[25\] 4.550e-03
*DRIVER i_A\[25\]
*CELL NULL
*C2_R1_C1 2.275e-03 7.370e-03 2.275e-03 
*LOADS
*RC a_reg_25_:D 3.353e-05
*END

*R_NET i_A\[24\] 4.550e-03
*DRIVER i_A\[24\]
*CELL NULL
*C2_R1_C1 2.275e-03 7.370e-03 2.275e-03 
*LOADS
*RC a_reg_24_:D 3.353e-05
*END

*R_NET i_A\[23\] 4.500e-03
*DRIVER i_A\[23\]
*CELL NULL
*C2_R1_C1 2.250e-03 7.370e-03 2.250e-03 
*LOADS
*RC a_reg_23_:D 3.316e-05
*END

*R_NET i_A\[22\] 4.500e-03
*DRIVER i_A\[22\]
*CELL NULL
*C2_R1_C1 2.250e-03 7.370e-03 2.250e-03 
*LOADS
*RC a_reg_22_:D 3.316e-05
*END

*R_NET i_A\[21\] 4.550e-03
*DRIVER i_A\[21\]
*CELL NULL
*C2_R1_C1 2.275e-03 7.370e-03 2.275e-03 
*LOADS
*RC a_reg_21_:D 3.353e-05
*END

*R_NET i_A\[20\] 4.550e-03
*DRIVER i_A\[20\]
*CELL NULL
*C2_R1_C1 2.275e-03 7.370e-03 2.275e-03 
*LOADS
*RC a_reg_20_:D 3.353e-05
*END

*R_NET i_A\[19\] 4.500e-03
*DRIVER i_A\[19\]
*CELL NULL
*C2_R1_C1 2.250e-03 7.370e-03 2.250e-03 
*LOADS
*RC a_reg_19_:D 3.316e-05
*END

*R_NET i_A\[18\] 4.500e-03
*DRIVER i_A\[18\]
*CELL NULL
*C2_R1_C1 2.250e-03 7.370e-03 2.250e-03 
*LOADS
*RC a_reg_18_:D 3.316e-05
*END

*R_NET i_A\[17\] 4.550e-03
*DRIVER i_A\[17\]
*CELL NULL
*C2_R1_C1 2.275e-03 7.370e-03 2.275e-03 
*LOADS
*RC a_reg_17_:D 3.353e-05
*END

*R_NET i_A\[16\] 4.550e-03
*DRIVER i_A\[16\]
*CELL NULL
*C2_R1_C1 2.275e-03 7.370e-03 2.275e-03 
*LOADS
*RC a_reg_16_:D 3.353e-05
*END

*R_NET i_A\[15\] 4.500e-03
*DRIVER i_A\[15\]
*CELL NULL
*C2_R1_C1 2.250e-03 7.370e-03 2.250e-03 
*LOADS
*RC a_reg_15_:D 3.316e-05
*END

*R_NET i_A\[14\] 4.500e-03
*DRIVER i_A\[14\]
*CELL NULL
*C2_R1_C1 2.250e-03 7.370e-03 2.250e-03 
*LOADS
*RC a_reg_14_:D 3.316e-05
*END

*R_NET i_A\[13\] 4.550e-03
*DRIVER i_A\[13\]
*CELL NULL
*C2_R1_C1 2.275e-03 7.370e-03 2.275e-03 
*LOADS
*RC a_reg_13_:D 3.353e-05
*END

*R_NET i_A\[12\] 4.550e-03
*DRIVER i_A\[12\]
*CELL NULL
*C2_R1_C1 2.275e-03 7.370e-03 2.275e-03 
*LOADS
*RC a_reg_12_:D 3.353e-05
*END

*R_NET i_A\[11\] 4.500e-03
*DRIVER i_A\[11\]
*CELL NULL
*C2_R1_C1 2.250e-03 7.370e-03 2.250e-03 
*LOADS
*RC a_reg_11_:D 3.316e-05
*END

*R_NET i_A\[10\] 4.500e-03
*DRIVER i_A\[10\]
*CELL NULL
*C2_R1_C1 2.250e-03 7.370e-03 2.250e-03 
*LOADS
*RC a_reg_10_:D 3.316e-05
*END

*R_NET i_A\[9\] 4.550e-03
*DRIVER i_A\[9\]
*CELL NULL
*C2_R1_C1 2.275e-03 7.370e-03 2.275e-03 
*LOADS
*RC a_reg_9_:D 3.353e-05
*END

*R_NET i_A\[8\] 4.550e-03
*DRIVER i_A\[8\]
*CELL NULL
*C2_R1_C1 2.275e-03 7.370e-03 2.275e-03 
*LOADS
*RC a_reg_8_:D 3.353e-05
*END

*R_NET i_A\[7\] 4.500e-03
*DRIVER i_A\[7\]
*CELL NULL
*C2_R1_C1 2.250e-03 7.370e-03 2.250e-03 
*LOADS
*RC a_reg_7_:D 3.316e-05
*END

*R_NET i_A\[6\] 4.500e-03
*DRIVER i_A\[6\]
*CELL NULL
*C2_R1_C1 2.250e-03 7.370e-03 2.250e-03 
*LOADS
*RC a_reg_6_:D 3.316e-05
*END

*R_NET i_A\[5\] 4.550e-03
*DRIVER i_A\[5\]
*CELL NULL
*C2_R1_C1 2.275e-03 7.370e-03 2.275e-03 
*LOADS
*RC a_reg_5_:D 3.353e-05
*END

*R_NET i_A\[4\] 4.550e-03
*DRIVER i_A\[4\]
*CELL NULL
*C2_R1_C1 2.275e-03 7.370e-03 2.275e-03 
*LOADS
*RC a_reg_4_:D 3.353e-05
*END

*R_NET i_A\[3\] 4.500e-03
*DRIVER i_A\[3\]
*CELL NULL
*C2_R1_C1 2.250e-03 7.370e-03 2.250e-03 
*LOADS
*RC a_reg_3_:D 3.316e-05
*END

*R_NET i_A\[2\] 4.500e-03
*DRIVER i_A\[2\]
*CELL NULL
*C2_R1_C1 2.250e-03 7.370e-03 2.250e-03 
*LOADS
*RC a_reg_2_:D 3.316e-05
*END

*R_NET i_A\[1\] 4.550e-03
*DRIVER i_A\[1\]
*CELL NULL
*C2_R1_C1 2.275e-03 7.370e-03 2.275e-03 
*LOADS
*RC a_reg_1_:D 3.353e-05
*END

*R_NET i_A\[0\] 4.550e-03
*DRIVER i_A\[0\]
*CELL NULL
*C2_R1_C1 2.275e-03 7.370e-03 2.275e-03 
*LOADS
*RC a_reg_0_:D 3.353e-05
*END

*R_NET i_B\[31\] 4.500e-03
*DRIVER i_B\[31\]
*CELL NULL
*C2_R1_C1 2.250e-03 7.370e-03 2.250e-03 
*LOADS
*RC b_reg_31_:D 3.316e-05
*END

*R_NET i_B\[30\] 4.500e-03
*DRIVER i_B\[30\]
*CELL NULL
*C2_R1_C1 2.250e-03 7.370e-03 2.250e-03 
*LOADS
*RC b_reg_30_:D 3.316e-05
*END

*R_NET i_B\[29\] 4.550e-03
*DRIVER i_B\[29\]
*CELL NULL
*C2_R1_C1 2.275e-03 7.370e-03 2.275e-03 
*LOADS
*RC b_reg_29_:D 3.353e-05
*END

*R_NET i_B\[28\] 4.550e-03
*DRIVER i_B\[28\]
*CELL NULL
*C2_R1_C1 2.275e-03 7.370e-03 2.275e-03 
*LOADS
*RC b_reg_28_:D 3.353e-05
*END

*R_NET i_B\[27\] 4.500e-03
*DRIVER i_B\[27\]
*CELL NULL
*C2_R1_C1 2.250e-03 7.370e-03 2.250e-03 
*LOADS
*RC b_reg_27_:D 3.316e-05
*END

*R_NET i_B\[26\] 4.500e-03
*DRIVER i_B\[26\]
*CELL NULL
*C2_R1_C1 2.250e-03 7.370e-03 2.250e-03 
*LOADS
*RC b_reg_26_:D 3.316e-05
*END

*R_NET i_B\[25\] 4.550e-03
*DRIVER i_B\[25\]
*CELL NULL
*C2_R1_C1 2.275e-03 7.370e-03 2.275e-03 
*LOADS
*RC b_reg_25_:D 3.353e-05
*END

*R_NET i_B\[24\] 4.550e-03
*DRIVER i_B\[24\]
*CELL NULL
*C2_R1_C1 2.275e-03 7.370e-03 2.275e-03 
*LOADS
*RC b_reg_24_:D 3.353e-05
*END

*R_NET i_B\[23\] 4.500e-03
*DRIVER i_B\[23\]
*CELL NULL
*C2_R1_C1 2.250e-03 7.370e-03 2.250e-03 
*LOADS
*RC b_reg_23_:D 3.316e-05
*END

*R_NET i_B\[22\] 4.500e-03
*DRIVER i_B\[22\]
*CELL NULL
*C2_R1_C1 2.250e-03 7.370e-03 2.250e-03 
*LOADS
*RC b_reg_22_:D 3.316e-05
*END

*R_NET i_B\[21\] 4.550e-03
*DRIVER i_B\[21\]
*CELL NULL
*C2_R1_C1 2.275e-03 7.370e-03 2.275e-03 
*LOADS
*RC b_reg_21_:D 3.353e-05
*END

*R_NET i_B\[20\] 4.550e-03
*DRIVER i_B\[20\]
*CELL NULL
*C2_R1_C1 2.275e-03 7.370e-03 2.275e-03 
*LOADS
*RC b_reg_20_:D 3.353e-05
*END

*R_NET i_B\[19\] 4.500e-03
*DRIVER i_B\[19\]
*CELL NULL
*C2_R1_C1 2.250e-03 7.370e-03 2.250e-03 
*LOADS
*RC b_reg_19_:D 3.316e-05
*END

*R_NET i_B\[18\] 4.500e-03
*DRIVER i_B\[18\]
*CELL NULL
*C2_R1_C1 2.250e-03 7.370e-03 2.250e-03 
*LOADS
*RC b_reg_18_:D 3.316e-05
*END

*R_NET i_B\[17\] 4.550e-03
*DRIVER i_B\[17\]
*CELL NULL
*C2_R1_C1 2.275e-03 7.370e-03 2.275e-03 
*LOADS
*RC b_reg_17_:D 3.353e-05
*END

*R_NET i_B\[16\] 4.550e-03
*DRIVER i_B\[16\]
*CELL NULL
*C2_R1_C1 2.275e-03 7.370e-03 2.275e-03 
*LOADS
*RC b_reg_16_:D 3.353e-05
*END

*R_NET i_B\[15\] 4.500e-03
*DRIVER i_B\[15\]
*CELL NULL
*C2_R1_C1 2.250e-03 7.370e-03 2.250e-03 
*LOADS
*RC b_reg_15_:D 3.316e-05
*END

*R_NET i_B\[14\] 4.500e-03
*DRIVER i_B\[14\]
*CELL NULL
*C2_R1_C1 2.250e-03 7.370e-03 2.250e-03 
*LOADS
*RC b_reg_14_:D 3.316e-05
*END

*R_NET i_B\[13\] 4.550e-03
*DRIVER i_B\[13\]
*CELL NULL
*C2_R1_C1 2.275e-03 7.370e-03 2.275e-03 
*LOADS
*RC b_reg_13_:D 3.353e-05
*END

*R_NET i_B\[12\] 4.550e-03
*DRIVER i_B\[12\]
*CELL NULL
*C2_R1_C1 2.275e-03 7.370e-03 2.275e-03 
*LOADS
*RC b_reg_12_:D 3.353e-05
*END

*R_NET i_B\[11\] 4.500e-03
*DRIVER i_B\[11\]
*CELL NULL
*C2_R1_C1 2.250e-03 7.370e-03 2.250e-03 
*LOADS
*RC b_reg_11_:D 3.316e-05
*END

*R_NET i_B\[10\] 4.500e-03
*DRIVER i_B\[10\]
*CELL NULL
*C2_R1_C1 2.250e-03 7.370e-03 2.250e-03 
*LOADS
*RC b_reg_10_:D 3.316e-05
*END

*R_NET i_B\[9\] 4.550e-03
*DRIVER i_B\[9\]
*CELL NULL
*C2_R1_C1 2.275e-03 7.370e-03 2.275e-03 
*LOADS
*RC b_reg_9_:D 3.353e-05
*END

*R_NET i_B\[8\] 4.550e-03
*DRIVER i_B\[8\]
*CELL NULL
*C2_R1_C1 2.275e-03 7.370e-03 2.275e-03 
*LOADS
*RC b_reg_8_:D 3.353e-05
*END

*R_NET i_B\[7\] 4.500e-03
*DRIVER i_B\[7\]
*CELL NULL
*C2_R1_C1 2.250e-03 7.370e-03 2.250e-03 
*LOADS
*RC b_reg_7_:D 3.316e-05
*END

*R_NET i_B\[6\] 4.500e-03
*DRIVER i_B\[6\]
*CELL NULL
*C2_R1_C1 2.250e-03 7.370e-03 2.250e-03 
*LOADS
*RC b_reg_6_:D 3.316e-05
*END

*R_NET i_B\[5\] 4.550e-03
*DRIVER i_B\[5\]
*CELL NULL
*C2_R1_C1 2.275e-03 7.370e-03 2.275e-03 
*LOADS
*RC b_reg_5_:D 3.353e-05
*END

*R_NET i_B\[4\] 4.550e-03
*DRIVER i_B\[4\]
*CELL NULL
*C2_R1_C1 2.275e-03 7.370e-03 2.275e-03 
*LOADS
*RC b_reg_4_:D 3.353e-05
*END

*R_NET i_B\[3\] 4.500e-03
*DRIVER i_B\[3\]
*CELL NULL
*C2_R1_C1 2.250e-03 7.370e-03 2.250e-03 
*LOADS
*RC b_reg_3_:D 3.316e-05
*END

*R_NET i_B\[2\] 4.500e-03
*DRIVER i_B\[2\]
*CELL NULL
*C2_R1_C1 2.250e-03 7.370e-03 2.250e-03 
*LOADS
*RC b_reg_2_:D 3.316e-05
*END

*R_NET i_B\[1\] 4.550e-03
*DRIVER i_B\[1\]
*CELL NULL
*C2_R1_C1 2.275e-03 7.370e-03 2.275e-03 
*LOADS
*RC b_reg_1_:D 3.353e-05
*END

*R_NET i_B\[0\] 4.550e-03
*DRIVER i_B\[0\]
*CELL NULL
*C2_R1_C1 2.275e-03 7.370e-03 2.275e-03 
*LOADS
*RC b_reg_0_:D 3.353e-05
*END

*R_NET i_AB_STB 5.200e-03
*DRIVER i_AB_STB
*CELL NULL
*C2_R1_C1 2.600e-03 7.370e-03 2.600e-03 
*LOADS
*RC U489:A 3.832e-05
*END

*R_NET o_AB_ACK 1.791e-02
*DRIVER o_AB_ACK_reg:Q
*CELL fds2eqd1_hd
*C2_R1_C1 8.955e-03 9.100e-03 8.955e-03 
*LOADS
*RC U489:B 1.630e-04
*RC o_AB_ACK 1.630e-04
*END

*R_NET o_Z\[31\] 1.350e-02
*DRIVER o_Z_reg_31_:Q
*CELL fds2eqd1_hd
*C2_R1_C1 6.750e-03 7.370e-03 6.750e-03 
*LOADS
*RC o_Z\[31\] 9.950e-05
*END

*R_NET o_Z\[30\] 1.350e-02
*DRIVER o_Z_reg_30_:Q
*CELL fds2eqd1_hd
*C2_R1_C1 6.750e-03 7.370e-03 6.750e-03 
*LOADS
*RC o_Z\[30\] 9.950e-05
*END

*R_NET o_Z\[29\] 1.350e-02
*DRIVER o_Z_reg_29_:Q
*CELL fds2eqd1_hd
*C2_R1_C1 6.750e-03 7.370e-03 6.750e-03 
*LOADS
*RC o_Z\[29\] 9.950e-05
*END

*R_NET o_Z\[28\] 1.350e-02
*DRIVER o_Z_reg_28_:Q
*CELL fds2eqd1_hd
*C2_R1_C1 6.750e-03 7.370e-03 6.750e-03 
*LOADS
*RC o_Z\[28\] 9.950e-05
*END

*R_NET o_Z\[27\] 1.350e-02
*DRIVER o_Z_reg_27_:Q
*CELL fds2eqd1_hd
*C2_R1_C1 6.750e-03 7.370e-03 6.750e-03 
*LOADS
*RC o_Z\[27\] 9.950e-05
*END

*R_NET o_Z\[26\] 1.350e-02
*DRIVER o_Z_reg_26_:Q
*CELL fds2eqd1_hd
*C2_R1_C1 6.750e-03 7.370e-03 6.750e-03 
*LOADS
*RC o_Z\[26\] 9.950e-05
*END

*R_NET o_Z\[25\] 1.350e-02
*DRIVER o_Z_reg_25_:Q
*CELL fds2eqd1_hd
*C2_R1_C1 6.750e-03 7.370e-03 6.750e-03 
*LOADS
*RC o_Z\[25\] 9.950e-05
*END

*R_NET o_Z\[24\] 1.350e-02
*DRIVER o_Z_reg_24_:Q
*CELL fds2eqd1_hd
*C2_R1_C1 6.750e-03 7.370e-03 6.750e-03 
*LOADS
*RC o_Z\[24\] 9.950e-05
*END

*R_NET o_Z\[23\] 1.350e-02
*DRIVER o_Z_reg_23_:Q
*CELL fds2eqd1_hd
*C2_R1_C1 6.750e-03 7.370e-03 6.750e-03 
*LOADS
*RC o_Z\[23\] 9.950e-05
*END

*R_NET o_Z\[22\] 1.350e-02
*DRIVER o_Z_reg_22_:Q
*CELL fds2eqd1_hd
*C2_R1_C1 6.750e-03 7.370e-03 6.750e-03 
*LOADS
*RC o_Z\[22\] 9.950e-05
*END

*R_NET o_Z\[21\] 1.350e-02
*DRIVER o_Z_reg_21_:Q
*CELL fds2eqd1_hd
*C2_R1_C1 6.750e-03 7.370e-03 6.750e-03 
*LOADS
*RC o_Z\[21\] 9.950e-05
*END

*R_NET o_Z\[20\] 1.350e-02
*DRIVER o_Z_reg_20_:Q
*CELL fds2eqd1_hd
*C2_R1_C1 6.750e-03 7.370e-03 6.750e-03 
*LOADS
*RC o_Z\[20\] 9.950e-05
*END

*R_NET o_Z\[19\] 1.350e-02
*DRIVER o_Z_reg_19_:Q
*CELL fds2eqd1_hd
*C2_R1_C1 6.750e-03 7.370e-03 6.750e-03 
*LOADS
*RC o_Z\[19\] 9.950e-05
*END

*R_NET o_Z\[18\] 1.350e-02
*DRIVER o_Z_reg_18_:Q
*CELL fds2eqd1_hd
*C2_R1_C1 6.750e-03 7.370e-03 6.750e-03 
*LOADS
*RC o_Z\[18\] 9.950e-05
*END

*R_NET o_Z\[17\] 1.350e-02
*DRIVER o_Z_reg_17_:Q
*CELL fds2eqd1_hd
*C2_R1_C1 6.750e-03 7.370e-03 6.750e-03 
*LOADS
*RC o_Z\[17\] 9.950e-05
*END

*R_NET o_Z\[16\] 1.350e-02
*DRIVER o_Z_reg_16_:Q
*CELL fds2eqd1_hd
*C2_R1_C1 6.750e-03 7.370e-03 6.750e-03 
*LOADS
*RC o_Z\[16\] 9.950e-05
*END

*R_NET o_Z\[15\] 1.350e-02
*DRIVER o_Z_reg_15_:Q
*CELL fds2eqd1_hd
*C2_R1_C1 6.750e-03 7.370e-03 6.750e-03 
*LOADS
*RC o_Z\[15\] 9.950e-05
*END

*R_NET o_Z\[14\] 1.350e-02
*DRIVER o_Z_reg_14_:Q
*CELL fds2eqd1_hd
*C2_R1_C1 6.750e-03 7.370e-03 6.750e-03 
*LOADS
*RC o_Z\[14\] 9.950e-05
*END

*R_NET o_Z\[13\] 1.350e-02
*DRIVER o_Z_reg_13_:Q
*CELL fds2eqd1_hd
*C2_R1_C1 6.750e-03 7.370e-03 6.750e-03 
*LOADS
*RC o_Z\[13\] 9.950e-05
*END

*R_NET o_Z\[12\] 1.350e-02
*DRIVER o_Z_reg_12_:Q
*CELL fds2eqd1_hd
*C2_R1_C1 6.750e-03 7.370e-03 6.750e-03 
*LOADS
*RC o_Z\[12\] 9.950e-05
*END

*R_NET o_Z\[11\] 1.350e-02
*DRIVER o_Z_reg_11_:Q
*CELL fds2eqd1_hd
*C2_R1_C1 6.750e-03 7.370e-03 6.750e-03 
*LOADS
*RC o_Z\[11\] 9.950e-05
*END

*R_NET o_Z\[10\] 1.350e-02
*DRIVER o_Z_reg_10_:Q
*CELL fds2eqd1_hd
*C2_R1_C1 6.750e-03 7.370e-03 6.750e-03 
*LOADS
*RC o_Z\[10\] 9.950e-05
*END

*R_NET o_Z\[9\] 1.350e-02
*DRIVER o_Z_reg_9_:Q
*CELL fds2eqd1_hd
*C2_R1_C1 6.750e-03 7.370e-03 6.750e-03 
*LOADS
*RC o_Z\[9\] 9.950e-05
*END

*R_NET o_Z\[8\] 1.350e-02
*DRIVER o_Z_reg_8_:Q
*CELL fds2eqd1_hd
*C2_R1_C1 6.750e-03 7.370e-03 6.750e-03 
*LOADS
*RC o_Z\[8\] 9.950e-05
*END

*R_NET o_Z\[7\] 1.350e-02
*DRIVER o_Z_reg_7_:Q
*CELL fds2eqd1_hd
*C2_R1_C1 6.750e-03 7.370e-03 6.750e-03 
*LOADS
*RC o_Z\[7\] 9.950e-05
*END

*R_NET o_Z\[6\] 1.350e-02
*DRIVER o_Z_reg_6_:Q
*CELL fds2eqd1_hd
*C2_R1_C1 6.750e-03 7.370e-03 6.750e-03 
*LOADS
*RC o_Z\[6\] 9.950e-05
*END

*R_NET o_Z\[5\] 1.350e-02
*DRIVER o_Z_reg_5_:Q
*CELL fds2eqd1_hd
*C2_R1_C1 6.750e-03 7.370e-03 6.750e-03 
*LOADS
*RC o_Z\[5\] 9.950e-05
*END

*R_NET o_Z\[4\] 1.350e-02
*DRIVER o_Z_reg_4_:Q
*CELL fds2eqd1_hd
*C2_R1_C1 6.750e-03 7.370e-03 6.750e-03 
*LOADS
*RC o_Z\[4\] 9.950e-05
*END

*R_NET o_Z\[3\] 1.350e-02
*DRIVER o_Z_reg_3_:Q
*CELL fds2eqd1_hd
*C2_R1_C1 6.750e-03 7.370e-03 6.750e-03 
*LOADS
*RC o_Z\[3\] 9.950e-05
*END

*R_NET o_Z\[2\] 1.350e-02
*DRIVER o_Z_reg_2_:Q
*CELL fds2eqd1_hd
*C2_R1_C1 6.750e-03 7.370e-03 6.750e-03 
*LOADS
*RC o_Z\[2\] 9.950e-05
*END

*R_NET o_Z\[1\] 1.350e-02
*DRIVER o_Z_reg_1_:Q
*CELL fds2eqd1_hd
*C2_R1_C1 6.750e-03 7.370e-03 6.750e-03 
*LOADS
*RC o_Z\[1\] 9.950e-05
*END

*R_NET o_Z\[0\] 1.350e-02
*DRIVER o_Z_reg_0_:Q
*CELL fds2eqd1_hd
*C2_R1_C1 6.750e-03 7.370e-03 6.750e-03 
*LOADS
*RC o_Z\[0\] 9.950e-05
*END

*R_NET o_Z_STB 1.791e-02
*DRIVER o_Z_STB_reg:Q
*CELL fds2eqd1_hd
*C2_R1_C1 8.955e-03 9.100e-03 8.955e-03 
*LOADS
*RC U329:B 1.630e-04
*RC o_Z_STB 1.630e-04
*END

*R_NET i_Z_ACK 5.200e-03
*DRIVER i_Z_ACK
*CELL NULL
*C2_R1_C1 2.600e-03 7.370e-03 2.600e-03 
*LOADS
*RC U329:A 3.832e-05
*END

*R_NET i_CLK 5.534e-01
*DRIVER i_CLK
*CELL NULL
*C2_R1_C1 2.767e-01 0.000e+00 2.767e-01 
*LOADS
*RC a_m_reg_20_:CK 0.000e+00
*RC a_m_reg_16_:CK 0.000e+00
*RC a_m_reg_15_:CK 0.000e+00
*RC a_m_reg_1_:CK 0.000e+00
*RC a_m_reg_8_:CK 0.000e+00
*RC a_m_reg_9_:CK 0.000e+00
*RC a_m_reg_12_:CK 0.000e+00
*RC a_m_reg_23_:CK 0.000e+00
*RC a_m_reg_22_:CK 0.000e+00
*RC a_m_reg_19_:CK 0.000e+00
*RC a_m_reg_18_:CK 0.000e+00
*RC a_m_reg_17_:CK 0.000e+00
*RC a_m_reg_14_:CK 0.000e+00
*RC a_m_reg_13_:CK 0.000e+00
*RC b_m_reg_8_:CK 0.000e+00
*RC b_m_reg_9_:CK 0.000e+00
*RC b_m_reg_10_:CK 0.000e+00
*RC b_m_reg_11_:CK 0.000e+00
*RC b_m_reg_12_:CK 0.000e+00
*RC b_m_reg_13_:CK 0.000e+00
*RC b_m_reg_14_:CK 0.000e+00
*RC b_m_reg_16_:CK 0.000e+00
*RC b_m_reg_18_:CK 0.000e+00
*RC b_m_reg_20_:CK 0.000e+00
*RC b_m_reg_22_:CK 0.000e+00
*RC b_m_reg_24_:CK 0.000e+00
*RC a_m_reg_5_:CK 0.000e+00
*RC a_m_reg_4_:CK 0.000e+00
*RC a_m_reg_3_:CK 0.000e+00
*RC a_m_reg_2_:CK 0.000e+00
*RC b_m_reg_5_:CK 0.000e+00
*RC b_m_reg_4_:CK 0.000e+00
*RC b_m_reg_3_:CK 0.000e+00
*RC b_m_reg_25_:CK 0.000e+00
*RC a_m_reg_7_:CK 0.000e+00
*RC b_m_reg_26_:CK 0.000e+00
*RC b_m_reg_6_:CK 0.000e+00
*RC b_m_reg_2_:CK 0.000e+00
*RC a_m_reg_25_:CK 0.000e+00
*RC a_m_reg_6_:CK 0.000e+00
*RC a_m_reg_21_:CK 0.000e+00
*RC b_s_reg:CK 0.000e+00
*RC b_m_reg_1_:CK 0.000e+00
*RC a_s_reg:CK 0.000e+00
*RC z_reg_22_:CK 0.000e+00
*RC z_reg_21_:CK 0.000e+00
*RC z_reg_20_:CK 0.000e+00
*RC z_reg_19_:CK 0.000e+00
*RC z_reg_18_:CK 0.000e+00
*RC z_reg_17_:CK 0.000e+00
*RC z_reg_16_:CK 0.000e+00
*RC z_reg_15_:CK 0.000e+00
*RC z_reg_14_:CK 0.000e+00
*RC z_reg_13_:CK 0.000e+00
*RC z_reg_12_:CK 0.000e+00
*RC z_reg_11_:CK 0.000e+00
*RC z_reg_10_:CK 0.000e+00
*RC z_reg_9_:CK 0.000e+00
*RC z_reg_8_:CK 0.000e+00
*RC z_reg_7_:CK 0.000e+00
*RC z_reg_6_:CK 0.000e+00
*RC z_reg_5_:CK 0.000e+00
*RC z_reg_4_:CK 0.000e+00
*RC z_reg_3_:CK 0.000e+00
*RC z_reg_2_:CK 0.000e+00
*RC z_reg_1_:CK 0.000e+00
*RC z_reg_0_:CK 0.000e+00
*RC z_reg_31_:CK 0.000e+00
*RC z_reg_23_:CK 0.000e+00
*RC z_reg_24_:CK 0.000e+00
*RC z_reg_25_:CK 0.000e+00
*RC z_reg_26_:CK 0.000e+00
*RC z_reg_27_:CK 0.000e+00
*RC z_reg_28_:CK 0.000e+00
*RC z_reg_29_:CK 0.000e+00
*RC z_reg_30_:CK 0.000e+00
*RC z_e_reg_6_:CK 0.000e+00
*RC z_e_reg_7_:CK 0.000e+00
*RC round_bit_reg:CK 0.000e+00
*RC guard_reg:CK 0.000e+00
*RC z_m_reg_6_:CK 0.000e+00
*RC z_m_reg_7_:CK 0.000e+00
*RC z_m_reg_8_:CK 0.000e+00
*RC z_m_reg_9_:CK 0.000e+00
*RC z_m_reg_10_:CK 0.000e+00
*RC z_m_reg_11_:CK 0.000e+00
*RC z_m_reg_12_:CK 0.000e+00
*RC z_m_reg_13_:CK 0.000e+00
*RC z_m_reg_14_:CK 0.000e+00
*RC z_m_reg_15_:CK 0.000e+00
*RC z_m_reg_16_:CK 0.000e+00
*RC z_m_reg_17_:CK 0.000e+00
*RC z_m_reg_18_:CK 0.000e+00
*RC z_m_reg_19_:CK 0.000e+00
*RC z_m_reg_20_:CK 0.000e+00
*RC z_m_reg_21_:CK 0.000e+00
*RC z_m_reg_22_:CK 0.000e+00
*RC z_m_reg_23_:CK 0.000e+00
*RC z_e_reg_8_:CK 0.000e+00
*RC z_e_reg_9_:CK 0.000e+00
*RC sum_reg_23_:CK 0.000e+00
*RC sum_reg_22_:CK 0.000e+00
*RC sum_reg_21_:CK 0.000e+00
*RC sum_reg_20_:CK 0.000e+00
*RC sum_reg_19_:CK 0.000e+00
*RC sum_reg_18_:CK 0.000e+00
*RC sum_reg_17_:CK 0.000e+00
*RC sum_reg_16_:CK 0.000e+00
*RC sum_reg_15_:CK 0.000e+00
*RC sum_reg_14_:CK 0.000e+00
*RC sum_reg_13_:CK 0.000e+00
*RC sum_reg_12_:CK 0.000e+00
*RC sum_reg_11_:CK 0.000e+00
*RC sum_reg_10_:CK 0.000e+00
*RC sum_reg_9_:CK 0.000e+00
*RC sum_reg_8_:CK 0.000e+00
*RC sum_reg_7_:CK 0.000e+00
*RC sum_reg_6_:CK 0.000e+00
*RC sum_reg_5_:CK 0.000e+00
*RC sum_reg_4_:CK 0.000e+00
*RC sum_reg_3_:CK 0.000e+00
*RC sum_reg_2_:CK 0.000e+00
*RC sum_reg_1_:CK 0.000e+00
*RC sum_reg_0_:CK 0.000e+00
*RC z_s_reg:CK 0.000e+00
*RC a_m_reg_10_:CK 0.000e+00
*RC a_m_reg_11_:CK 0.000e+00
*RC a_m_reg_24_:CK 0.000e+00
*RC a_m_reg_26_:CK 0.000e+00
*RC a_e_reg_2_:CK 0.000e+00
*RC a_e_reg_1_:CK 0.000e+00
*RC a_e_reg_0_:CK 0.000e+00
*RC a_e_reg_9_:CK 0.000e+00
*RC b_e_reg_2_:CK 0.000e+00
*RC b_e_reg_1_:CK 0.000e+00
*RC b_e_reg_0_:CK 0.000e+00
*RC b_e_reg_9_:CK 0.000e+00
*RC a_reg_2_:CK 0.000e+00
*RC a_reg_3_:CK 0.000e+00
*RC a_reg_6_:CK 0.000e+00
*RC a_reg_7_:CK 0.000e+00
*RC a_reg_10_:CK 0.000e+00
*RC a_reg_11_:CK 0.000e+00
*RC a_reg_14_:CK 0.000e+00
*RC a_reg_15_:CK 0.000e+00
*RC a_reg_18_:CK 0.000e+00
*RC a_reg_19_:CK 0.000e+00
*RC a_reg_22_:CK 0.000e+00
*RC a_reg_23_:CK 0.000e+00
*RC a_reg_26_:CK 0.000e+00
*RC a_reg_27_:CK 0.000e+00
*RC a_reg_30_:CK 0.000e+00
*RC a_reg_31_:CK 0.000e+00
*RC b_reg_2_:CK 0.000e+00
*RC b_reg_3_:CK 0.000e+00
*RC b_reg_6_:CK 0.000e+00
*RC b_reg_7_:CK 0.000e+00
*RC b_reg_10_:CK 0.000e+00
*RC b_reg_11_:CK 0.000e+00
*RC b_reg_14_:CK 0.000e+00
*RC b_reg_15_:CK 0.000e+00
*RC b_reg_18_:CK 0.000e+00
*RC b_reg_19_:CK 0.000e+00
*RC b_reg_22_:CK 0.000e+00
*RC b_reg_23_:CK 0.000e+00
*RC b_reg_26_:CK 0.000e+00
*RC b_reg_27_:CK 0.000e+00
*RC b_reg_30_:CK 0.000e+00
*RC b_reg_31_:CK 0.000e+00
*RC b_m_reg_7_:CK 0.000e+00
*RC b_m_reg_15_:CK 0.000e+00
*RC b_m_reg_17_:CK 0.000e+00
*RC b_m_reg_19_:CK 0.000e+00
*RC b_m_reg_21_:CK 0.000e+00
*RC b_m_reg_23_:CK 0.000e+00
*RC a_e_reg_3_:CK 0.000e+00
*RC a_e_reg_4_:CK 0.000e+00
*RC a_e_reg_5_:CK 0.000e+00
*RC a_e_reg_6_:CK 0.000e+00
*RC a_e_reg_7_:CK 0.000e+00
*RC a_e_reg_8_:CK 0.000e+00
*RC b_e_reg_3_:CK 0.000e+00
*RC b_e_reg_4_:CK 0.000e+00
*RC b_e_reg_5_:CK 0.000e+00
*RC b_e_reg_6_:CK 0.000e+00
*RC b_e_reg_7_:CK 0.000e+00
*RC b_e_reg_8_:CK 0.000e+00
*RC z_e_reg_5_:CK 0.000e+00
*RC z_e_reg_4_:CK 0.000e+00
*RC z_e_reg_3_:CK 0.000e+00
*RC z_e_reg_2_:CK 0.000e+00
*RC z_e_reg_1_:CK 0.000e+00
*RC z_e_reg_0_:CK 0.000e+00
*RC z_m_reg_5_:CK 0.000e+00
*RC z_m_reg_4_:CK 0.000e+00
*RC z_m_reg_3_:CK 0.000e+00
*RC z_m_reg_2_:CK 0.000e+00
*RC z_m_reg_1_:CK 0.000e+00
*RC z_m_reg_0_:CK 0.000e+00
*RC b_m_reg_0_:CK 0.000e+00
*RC a_m_reg_0_:CK 0.000e+00
*RC a_reg_0_:CK 0.000e+00
*RC a_reg_1_:CK 0.000e+00
*RC a_reg_4_:CK 0.000e+00
*RC a_reg_5_:CK 0.000e+00
*RC a_reg_8_:CK 0.000e+00
*RC a_reg_9_:CK 0.000e+00
*RC a_reg_12_:CK 0.000e+00
*RC a_reg_13_:CK 0.000e+00
*RC a_reg_16_:CK 0.000e+00
*RC a_reg_17_:CK 0.000e+00
*RC a_reg_20_:CK 0.000e+00
*RC a_reg_21_:CK 0.000e+00
*RC a_reg_24_:CK 0.000e+00
*RC a_reg_25_:CK 0.000e+00
*RC a_reg_28_:CK 0.000e+00
*RC a_reg_29_:CK 0.000e+00
*RC b_reg_0_:CK 0.000e+00
*RC b_reg_1_:CK 0.000e+00
*RC b_reg_4_:CK 0.000e+00
*RC b_reg_5_:CK 0.000e+00
*RC b_reg_8_:CK 0.000e+00
*RC b_reg_9_:CK 0.000e+00
*RC b_reg_12_:CK 0.000e+00
*RC b_reg_13_:CK 0.000e+00
*RC b_reg_16_:CK 0.000e+00
*RC b_reg_17_:CK 0.000e+00
*RC b_reg_20_:CK 0.000e+00
*RC b_reg_21_:CK 0.000e+00
*RC b_reg_24_:CK 0.000e+00
*RC b_reg_25_:CK 0.000e+00
*RC b_reg_28_:CK 0.000e+00
*RC b_reg_29_:CK 0.000e+00
*RC o_Z_reg_0_:CK 0.000e+00
*RC o_Z_reg_1_:CK 0.000e+00
*RC o_Z_reg_2_:CK 0.000e+00
*RC o_Z_reg_3_:CK 0.000e+00
*RC o_Z_reg_4_:CK 0.000e+00
*RC o_Z_reg_5_:CK 0.000e+00
*RC o_Z_reg_6_:CK 0.000e+00
*RC o_Z_reg_7_:CK 0.000e+00
*RC o_Z_reg_8_:CK 0.000e+00
*RC o_Z_reg_9_:CK 0.000e+00
*RC o_Z_reg_10_:CK 0.000e+00
*RC o_Z_reg_11_:CK 0.000e+00
*RC o_Z_reg_12_:CK 0.000e+00
*RC o_Z_reg_13_:CK 0.000e+00
*RC o_Z_reg_14_:CK 0.000e+00
*RC o_Z_reg_15_:CK 0.000e+00
*RC o_Z_reg_16_:CK 0.000e+00
*RC o_Z_reg_17_:CK 0.000e+00
*RC o_Z_reg_18_:CK 0.000e+00
*RC o_Z_reg_19_:CK 0.000e+00
*RC o_Z_reg_20_:CK 0.000e+00
*RC o_Z_reg_21_:CK 0.000e+00
*RC o_Z_reg_22_:CK 0.000e+00
*RC o_Z_reg_23_:CK 0.000e+00
*RC o_Z_reg_24_:CK 0.000e+00
*RC o_Z_reg_25_:CK 0.000e+00
*RC o_Z_reg_26_:CK 0.000e+00
*RC o_Z_reg_27_:CK 0.000e+00
*RC o_Z_reg_28_:CK 0.000e+00
*RC o_Z_reg_29_:CK 0.000e+00
*RC o_Z_reg_30_:CK 0.000e+00
*RC o_Z_reg_31_:CK 0.000e+00
*RC sticky_reg:CK 0.000e+00
*RC state_reg_0_:CK 0.000e+00
*RC state_reg_1_:CK 0.000e+00
*RC state_reg_2_:CK 0.000e+00
*RC state_reg_3_:CK 0.000e+00
*RC o_Z_STB_reg:CK 0.000e+00
*RC o_AB_ACK_reg:CK 0.000e+00
*RC sum_reg_27_:CK 0.000e+00
*RC sum_reg_26_:CK 0.000e+00
*RC sum_reg_25_:CK 0.000e+00
*RC sum_reg_24_:CK 0.000e+00
*END

*R_NET state\[3\] 2.652e-02
*DRIVER state_reg_3_:Q
*CELL fds2eqd1_hd
*C2_R1_C1 1.326e-02 1.549e-02 1.326e-02 
*LOADS
*RC U492:A 4.108e-04
*RC U493:C 4.108e-04
*RC U805:A 4.108e-04
*RC U810:C 4.108e-04
*RC U840:A 4.108e-04
*END

*R_NET state\[2\] 3.971e-02
*DRIVER state_reg_2_:Q
*CELL fds2eqd1_hd
*C2_R1_C1 1.986e-02 1.549e-02 1.986e-02 
*LOADS
*RC U263:A 6.151e-04
*RC U267:A 6.151e-04
*RC U443:A 6.151e-04
*RC U491:A 6.151e-04
*RC U842:A 6.151e-04
*END

*R_NET state\[1\] 1.576e-02
*DRIVER state_reg_1_:Q
*CELL fds2eqd1_hd
*C2_R1_C1 7.880e-03 9.460e-03 7.880e-03 
*LOADS
*RC U493:B 1.491e-04
*RC U838:A 1.491e-04
*RC U839:B 1.491e-04
*END

*R_NET state\[0\] 1.577e-02
*DRIVER state_reg_0_:Q
*CELL fds2eqd1_hd
*C2_R1_C1 7.885e-03 9.460e-03 7.885e-03 
*LOADS
*RC U493:A 1.492e-04
*RC U836:C 1.492e-04
*RC U841:A 1.492e-04
*END

*R_NET a\[31\] 5.090e-03
*DRIVER a_reg_31_:Q
*CELL fd1eqd1_hd
*C2_R1_C1 2.545e-03 7.370e-03 2.545e-03 
*LOADS
*RC U330:D1 3.751e-05
*END

*R_NET a\[30\] 1.615e-02
*DRIVER a_reg_30_:Q
*CELL fd1eqd1_hd
*C2_R1_C1 8.075e-03 9.460e-03 8.075e-03 
*LOADS
*RC DP_OP_128_128_163/U13:A 1.528e-04
*RC DP_OP_128_128_163/U14:A 1.528e-04
*RC DP_OP_128_128_163/U15:A 1.528e-04
*END

*R_NET a\[29\] 7.170e-03
*DRIVER a_reg_29_:Q
*CELL fds2eqd1_hd
*C2_R1_C1 3.585e-03 7.370e-03 3.585e-03 
*LOADS
*RC DP_OP_128_128_163/U4:A 5.284e-05
*END

*R_NET a\[28\] 7.170e-03
*DRIVER a_reg_28_:Q
*CELL fds2eqd1_hd
*C2_R1_C1 3.585e-03 7.370e-03 3.585e-03 
*LOADS
*RC DP_OP_128_128_163/U5:A 5.284e-05
*END

*R_NET a\[27\] 7.170e-03
*DRIVER a_reg_27_:Q
*CELL fd1eqd1_hd
*C2_R1_C1 3.585e-03 7.370e-03 3.585e-03 
*LOADS
*RC DP_OP_128_128_163/U6:A 5.284e-05
*END

*R_NET a\[26\] 7.170e-03
*DRIVER a_reg_26_:Q
*CELL fd1eqd1_hd
*C2_R1_C1 3.585e-03 7.370e-03 3.585e-03 
*LOADS
*RC DP_OP_128_128_163/U7:A 5.284e-05
*END

*R_NET a\[25\] 7.170e-03
*DRIVER a_reg_25_:Q
*CELL fds2eqd1_hd
*C2_R1_C1 3.585e-03 7.370e-03 3.585e-03 
*LOADS
*RC DP_OP_128_128_163/U8:A 5.284e-05
*END

*R_NET a\[24\] 7.170e-03
*DRIVER a_reg_24_:Q
*CELL fds2eqd1_hd
*C2_R1_C1 3.585e-03 7.370e-03 3.585e-03 
*LOADS
*RC DP_OP_128_128_163/U9:A 5.284e-05
*END

*R_NET a\[23\] 1.222e-02
*DRIVER a_reg_23_:Q
*CELL fd1eqd1_hd
*C2_R1_C1 6.110e-03 9.100e-03 6.110e-03 
*LOADS
*RC DP_OP_128_128_163/U17:A 1.112e-04
*RC DP_OP_128_128_163/U9:B 1.112e-04
*END

*R_NET a\[22\] 4.670e-03
*DRIVER a_reg_22_:Q
*CELL fd1eqd1_hd
*C2_R1_C1 2.335e-03 7.370e-03 2.335e-03 
*LOADS
*RC U407:D 3.442e-05
*END

*R_NET a\[21\] 4.670e-03
*DRIVER a_reg_21_:Q
*CELL fds2eqd1_hd
*C2_R1_C1 2.335e-03 7.370e-03 2.335e-03 
*LOADS
*RC U405:D 3.442e-05
*END

*R_NET a\[20\] 4.670e-03
*DRIVER a_reg_20_:Q
*CELL fds2eqd1_hd
*C2_R1_C1 2.335e-03 7.370e-03 2.335e-03 
*LOADS
*RC U404:D 3.442e-05
*END

*R_NET a\[19\] 4.670e-03
*DRIVER a_reg_19_:Q
*CELL fd1eqd1_hd
*C2_R1_C1 2.335e-03 7.370e-03 2.335e-03 
*LOADS
*RC U403:D 3.442e-05
*END

*R_NET a\[18\] 4.670e-03
*DRIVER a_reg_18_:Q
*CELL fd1eqd1_hd
*C2_R1_C1 2.335e-03 7.370e-03 2.335e-03 
*LOADS
*RC U402:D 3.442e-05
*END

*R_NET a\[17\] 4.670e-03
*DRIVER a_reg_17_:Q
*CELL fds2eqd1_hd
*C2_R1_C1 2.335e-03 7.370e-03 2.335e-03 