*SPEF "IEEE 1481-1999"
*DESIGN "converter_i2f"
*DATE "Wed Jun 17 19:00:44 2020"
*VENDOR "SYNOPSYS INC"
*PROGRAM "Synopsys Design Compiler cmos"
*VERSION "F-2011.09-SP5-3"
*DESIGN_FLOW "SYNTHESIS"
*DIVIDER /
*DELIMITER :
*BUS_DELIMITER []
*T_UNIT 1.0 NS
*C_UNIT 1.0 PF
*R_UNIT 1.0 KOHM
*L_UNIT 1.0 HENRY

*PORTS

i_A\[31\] I *L 1.900e-03 *S 1.479e-01 1.678e-01 *D fd4qd1_hd 
i_A\[30\] I *L 1.900e-03 *S 1.462e-01 1.662e-01 *D fd4qd1_hd 
i_A\[29\] I *L 1.900e-03 *S 1.462e-01 1.662e-01 *D fd4qd1_hd 
i_A\[28\] I *L 1.900e-03 *S 1.462e-01 1.662e-01 *D fd4qd1_hd 
i_A\[27\] I *L 1.900e-03 *S 1.462e-01 1.662e-01 *D fd4qd1_hd 
i_A\[26\] I *L 1.900e-03 *S 1.462e-01 1.662e-01 *D fd4qd1_hd 
i_A\[25\] I *L 1.900e-03 *S 1.462e-01 1.662e-01 *D fd4qd1_hd 
i_A\[24\] I *L 1.900e-03 *S 1.462e-01 1.662e-01 *D fd4qd1_hd 
i_A\[23\] I *L 1.900e-03 *S 1.462e-01 1.662e-01 *D fd4qd1_hd 
i_A\[22\] I *L 1.900e-03 *S 1.462e-01 1.662e-01 *D fd4qd1_hd 
i_A\[21\] I *L 1.900e-03 *S 1.462e-01 1.662e-01 *D fd4qd1_hd 
i_A\[20\] I *L 1.900e-03 *S 1.462e-01 1.662e-01 *D fd4qd1_hd 
i_A\[19\] I *L 1.900e-03 *S 1.462e-01 1.662e-01 *D fd4qd1_hd 
i_A\[18\] I *L 1.900e-03 *S 1.462e-01 1.662e-01 *D fd4qd1_hd 
i_A\[17\] I *L 1.900e-03 *S 1.462e-01 1.662e-01 *D fd4qd1_hd 
i_A\[16\] I *L 1.900e-03 *S 1.462e-01 1.662e-01 *D fd4qd1_hd 
i_A\[15\] I *L 1.900e-03 *S 1.462e-01 1.662e-01 *D fd4qd1_hd 
i_A\[14\] I *L 1.900e-03 *S 1.462e-01 1.662e-01 *D fd4qd1_hd 
i_A\[13\] I *L 1.900e-03 *S 1.462e-01 1.662e-01 *D fd4qd1_hd 
i_A\[12\] I *L 1.900e-03 *S 1.462e-01 1.662e-01 *D fd4qd1_hd 
i_A\[11\] I *L 1.900e-03 *S 1.462e-01 1.662e-01 *D fd4qd1_hd 
i_A\[10\] I *L 1.900e-03 *S 1.462e-01 1.662e-01 *D fd4qd1_hd 
i_A\[9\] I *L 1.900e-03 *S 1.462e-01 1.662e-01 *D fd4qd1_hd 
i_A\[8\] I *L 1.900e-03 *S 1.462e-01 1.662e-01 *D fd4qd1_hd 
i_A\[7\] I *L 0.000e+00 *S 0.000e+00 0.000e+00 
i_A\[6\] I *L 0.000e+00 *S 0.000e+00 0.000e+00 
i_A\[5\] I *L 0.000e+00 *S 0.000e+00 0.000e+00 
i_A\[4\] I *L 0.000e+00 *S 0.000e+00 0.000e+00 
i_A\[3\] I *L 0.000e+00 *S 0.000e+00 0.000e+00 
i_A\[2\] I *L 0.000e+00 *S 0.000e+00 0.000e+00 
i_A\[1\] I *L 0.000e+00 *S 0.000e+00 0.000e+00 
i_A\[0\] I *L 0.000e+00 *S 0.000e+00 0.000e+00 
i_A_STB I *L 1.900e-03 *S 1.506e-01 1.704e-01 *D fd4qd1_hd 
o_A_ACK O *L 1.035e-02 *S 3.179e-01 2.234e-01 
o_Z\[31\] O *L 1.035e-02 *S 1.434e-01 1.217e-01 
o_Z\[30\] O *L 1.035e-02 *S 1.434e-01 1.217e-01 
o_Z\[29\] O *L 1.035e-02 *S 1.434e-01 1.217e-01 
o_Z\[28\] O *L 1.035e-02 *S 1.434e-01 1.217e-01 
o_Z\[27\] O *L 1.035e-02 *S 1.434e-01 1.217e-01 
o_Z\[26\] O *L 1.035e-02 *S 1.434e-01 1.217e-01 
o_Z\[25\] O *L 1.035e-02 *S 1.434e-01 1.217e-01 
o_Z\[24\] O *L 1.035e-02 *S 1.434e-01 1.217e-01 
o_Z\[23\] O *L 1.035e-02 *S 1.434e-01 1.217e-01 
o_Z\[22\] O *L 1.035e-02 *S 1.434e-01 1.217e-01 
o_Z\[21\] O *L 1.035e-02 *S 1.434e-01 1.217e-01 
o_Z\[20\] O *L 1.035e-02 *S 1.434e-01 1.217e-01 
o_Z\[19\] O *L 1.035e-02 *S 1.434e-01 1.217e-01 
o_Z\[18\] O *L 1.035e-02 *S 1.434e-01 1.217e-01 
o_Z\[17\] O *L 1.035e-02 *S 1.434e-01 1.217e-01 
o_Z\[16\] O *L 1.035e-02 *S 1.434e-01 1.217e-01 
o_Z\[15\] O *L 1.035e-02 *S 1.434e-01 1.217e-01 
o_Z\[14\] O *L 1.035e-02 *S 1.434e-01 1.217e-01 
o_Z\[13\] O *L 1.035e-02 *S 1.434e-01 1.217e-01 
o_Z\[12\] O *L 1.035e-02 *S 1.434e-01 1.217e-01 
o_Z\[11\] O *L 1.035e-02 *S 1.434e-01 1.217e-01 
o_Z\[10\] O *L 1.035e-02 *S 1.434e-01 1.217e-01 
o_Z\[9\] O *L 1.035e-02 *S 1.434e-01 1.217e-01 
o_Z\[8\] O *L 1.035e-02 *S 1.434e-01 1.217e-01 
o_Z\[7\] O *L 1.035e-02 *S 1.434e-01 1.217e-01 
o_Z\[6\] O *L 1.035e-02 *S 1.434e-01 1.217e-01 
o_Z\[5\] O *L 1.035e-02 *S 1.434e-01 1.217e-01 
o_Z\[4\] O *L 1.035e-02 *S 1.434e-01 1.217e-01 
o_Z\[3\] O *L 1.035e-02 *S 1.434e-01 1.217e-01 
o_Z\[2\] O *L 1.035e-02 *S 1.434e-01 1.217e-01 
o_Z\[1\] O *L 1.035e-02 *S 1.434e-01 1.217e-01 
o_Z\[0\] O *L 1.035e-02 *S 1.434e-01 1.217e-01 
o_Z_STB O *L 1.035e-02 *S 2.559e-01 1.852e-01 
i_Z_ACK I *L 1.900e-03 *S 1.506e-01 1.704e-01 *D fd4qd1_hd 
i_CLK I *L 0.000e+00 *S 0.000e+00 0.000e+00 
i_RST I *L 1.035e-02 *S 0.000e+00 0.000e+00 *D fd3qd1_hd 

*R_NET n243 4.500e-03
*DRIVER U89:Y
*CELL nr2d1_hd
*C2_R1_C1 2.250e-03 7.370e-03 2.250e-03 
*LOADS
*RC clk_r_REG1_S2:D 3.316e-05
*END

*R_NET n244 4.680e-03
*DRIVER U217:Y
*CELL xo2d1_hd
*C2_R1_C1 2.340e-03 7.370e-03 2.340e-03 
*LOADS
*RC clk_r_REG87_S5:D 3.449e-05
*END

*R_NET n245 4.680e-03
*DRIVER U459:Y
*CELL ao22d1_hd
*C2_R1_C1 2.340e-03 7.370e-03 2.340e-03 
*LOADS
*RC clk_r_REG90_S5:D 3.449e-05
*END

*R_NET n246 4.680e-03
*DRIVER U456:Y
*CELL ao22d1_hd
*C2_R1_C1 2.340e-03 7.370e-03 2.340e-03 
*LOADS
*RC clk_r_REG93_S5:D 3.449e-05
*END

*R_NET n247 4.680e-03
*DRIVER U454:Y
*CELL ao22d1_hd
*C2_R1_C1 2.340e-03 7.370e-03 2.340e-03 
*LOADS
*RC clk_r_REG96_S5:D 3.449e-05
*END

*R_NET n248 4.680e-03
*DRIVER U450:Y
*CELL ao22d1_hd
*C2_R1_C1 2.340e-03 7.370e-03 2.340e-03 
*LOADS
*RC clk_r_REG99_S5:D 3.449e-05
*END

*R_NET n249 4.680e-03
*DRIVER U448:Y
*CELL ao22d1_hd
*C2_R1_C1 2.340e-03 7.370e-03 2.340e-03 
*LOADS
*RC clk_r_REG102_S5:D 3.449e-05
*END

*R_NET n250 4.680e-03
*DRIVER U444:Y
*CELL ao22d1_hd
*C2_R1_C1 2.340e-03 7.370e-03 2.340e-03 
*LOADS
*RC clk_r_REG105_S5:D 3.449e-05
*END

*R_NET i_A_STB 1.504e-02
*DRIVER i_A_STB
*CELL fd4qd1_hd
*C2_R1_C1 7.520e-03 1.275e-02 7.520e-03 
*LOADS
*RC U414:B 1.918e-04
*END

*R_NET i_Z_ACK 1.504e-02
*DRIVER i_Z_ACK
*CELL fd4qd1_hd
*C2_R1_C1 7.520e-03 1.275e-02 7.520e-03 
*LOADS
*RC U415:B 1.918e-04
*END

*R_NET i_CLK 2.875e-02
*DRIVER i_CLK
*CELL NULL
*C2_R1_C1 1.437e-02 0.000e+00 1.437e-02 
*LOADS
*RC clk_gate_clk_r_REG87_S5_0/latch:CK 0.000e+00
*RC clk_gate_clk_r_REG3_S4_0/latch:CK 0.000e+00
*RC clk_gate_clk_r_REG173_S1_0/latch:CK 0.000e+00
*RC clk_gate_clk_r_REG141_S2_0/latch:CK 0.000e+00
*RC clk_gate_clk_r_REG17_S3_0/latch:CK 0.000e+00
*RC clk_gate_clk_r_REG13_S3_0/latch:CK 0.000e+00
*RC clk_r_REG14_S4:CK 0.000e+00
*RC clk_r_REG10_S4:CK 0.000e+00
*RC clk_r_REG175_S1:CK 0.000e+00
*RC clk_r_REG174_S1:CK 0.000e+00
*RC clk_r_REG1_S2:CK 0.000e+00
*RC clk_r_REG4_S2:CK 0.000e+00
*RC clk_r_REG61_S3:CK 0.000e+00
*RC clk_r_REG15_S3:CK 0.000e+00
*RC clk_r_REG110_S2:CK 0.000e+00
*RC clk_r_REG85_S3:CK 0.000e+00
*END

*R_NET n242 2.485e-02
*DRIVER U414:Y
*CELL clknd2d1_hd
*C2_R1_C1 1.242e-02 1.549e-02 1.242e-02 
*LOADS
*RC U18:B 3.849e-04
*RC U21:B 3.849e-04
*RC U43:A 3.849e-04
*RC U51:A 3.849e-04
*RC U78:A 3.849e-04
*END

*R_NET n251 1.609e-02
*DRIVER U415:Y
*CELL clknd2d1_hd
*C2_R1_C1 8.045e-03 9.460e-03 8.045e-03 
*LOADS
*RC U82:A 1.522e-04
*RC U92:C 1.522e-04
*RC U84:B 1.522e-04
*END

*R_NET N6 1.605e-01
*DRIVER U167:Y
*CELL nid2_hd
*C2_R1_C1 8.024e-02 4.595e-02 8.024e-02 
*LOADS
*RC U225:C 7.375e-03
*RC U224:C 7.375e-03
*RC U223:C 7.375e-03
*RC U222:C 7.375e-03
*RC U221:C 7.375e-03
*RC U220:C 7.375e-03
*RC U219:C 7.375e-03
*RC U87:AN 7.375e-03
*RC U77:E 7.375e-03
*RC U76:E 7.375e-03
*RC U75:E 7.375e-03
*RC U74:E 7.375e-03
*RC U73:E 7.375e-03
*RC U72:E 7.375e-03
*RC U71:E 7.375e-03
*RC U70:E 7.375e-03
*RC U69:E 7.375e-03
*RC U68:E 7.375e-03
*RC U67:E 7.375e-03
*RC U66:E 7.375e-03
*RC U65:E 7.375e-03
*RC U64:E 7.375e-03
*RC U63:E 7.375e-03
*RC U62:E 7.375e-03
*RC U61:E 7.375e-03
*RC U60:E 7.375e-03
*RC U59:E 7.375e-03
*RC U58:E 7.375e-03
*RC U57:E 7.375e-03
*RC U56:E 7.375e-03
*RC U55:E 7.375e-03
*RC U54:E 7.375e-03
*RC U53:B 7.375e-03
*RC U49:A 7.375e-03
*RC U46:A 7.375e-03
*RC U44:A 7.375e-03
*RC U42:A 7.375e-03
*RC U40:A 7.375e-03
*RC U38:A 7.375e-03
*RC U36:A 7.375e-03
*RC U34:A 7.375e-03
*END

*R_NET N23 3.026e-02
*DRIVER U174:Y
*CELL ivd1_hd
*C2_R1_C1 1.513e-02 1.674e-02 1.513e-02 
*LOADS
*RC U17:B 5.066e-04
*RC U47:C 5.066e-04
*RC U234:A 5.066e-04
*RC U233:A 5.066e-04
*RC U230:A 5.066e-04
*RC U171:A 5.066e-04
*END

*R_NET N24 3.112e-02
*DRIVER U173:Y
*CELL ivd1_hd
*C2_R1_C1 1.556e-02 1.674e-02 1.556e-02 
*LOADS
*RC U18:A 5.209e-04
*RC U47:D 5.209e-04
*RC U234:B 5.209e-04
*RC U233:B 5.209e-04
*RC U172:B 5.209e-04
*RC U170:B 5.209e-04
*END

*R_NET N25 2.703e-02
*DRIVER U175:Y
*CELL ivd1_hd
*C2_R1_C1 1.352e-02 1.549e-02 1.352e-02 
*LOADS
*RC U19:B 4.187e-04
*RC U92:D 4.187e-04
*RC U418:B 4.187e-04
*RC U413:B 4.187e-04
*RC U235:B 4.187e-04
*END

*R_NET N26 4.590e-03
*DRIVER U234:Y
*CELL ad2d1_hd
*C2_R1_C1 2.295e-03 7.370e-03 2.295e-03 
*LOADS
*RC U235:A 3.383e-05
*END

*R_NET N27 8.960e-03
*DRIVER U235:Y
*CELL ad2d1_hd
*C2_R1_C1 4.480e-03 9.100e-03 4.480e-03 
*LOADS
*RC U21:AN 8.154e-05
*RC U80:AN 8.154e-05
*END

*R_NET N28 5.520e-03
*DRIVER U216:Y
*CELL or2d1_hd
*C2_R1_C1 2.760e-03 7.370e-03 2.760e-03 
*LOADS
*RC U413:A 4.068e-05
*END

*R_NET N31 1.189e-02
*DRIVER U170:Y
*CELL or2d1_hd
*C2_R1_C1 5.945e-03 7.370e-03 5.945e-03 
*LOADS
*RC U416:A 8.763e-05
*END

*R_NET N34 5.520e-03
*DRIVER U172:Y
*CELL or2d1_hd
*C2_R1_C1 2.760e-03 7.370e-03 2.760e-03 
*LOADS
*RC U418:A 4.068e-05
*END

*R_NET N37 1.189e-02
*DRIVER U171:Y
*CELL or2d1_hd
*C2_R1_C1 5.945e-03 7.370e-03 5.945e-03 
*LOADS
*RC U417:A 8.763e-05
*END

*R_NET N40 5.520e-03
*DRIVER U230:Y
*CELL or2d1_hd
*C2_R1_C1 2.760e-03 7.370e-03 2.760e-03 
*LOADS
*RC U19:A 4.068e-05
*END

*R_NET N43 5.520e-03
*DRIVER U233:Y
*CELL or2d1_hd
*C2_R1_C1 2.760e-03 7.370e-03 2.760e-03 
*LOADS
*RC U20:A 4.068e-05
*END

*R_NET N51 4.780e-03
*DRIVER sub_x_1/U68:Y
*CELL nid1_hd
*C2_R1_C1 2.390e-03 7.370e-03 2.390e-03 
*LOADS
*RC U178:B 3.523e-05
*END

*R_NET N52 4.780e-03
*DRIVER sub_x_1/U31:S
*CELL had1_hd
*C2_R1_C1 2.390e-03 7.370e-03 2.390e-03 
*LOADS
*RC U179:B 3.523e-05
*END

*R_NET N53 4.780e-03
*DRIVER sub_x_1/U30:S
*CELL had1_hd
*C2_R1_C1 2.390e-03 7.370e-03 2.390e-03 
*LOADS
*RC U180:B 3.523e-05
*END

*R_NET N54 4.780e-03
*DRIVER sub_x_1/U29:S
*CELL had1_hd
*C2_R1_C1 2.390e-03 7.370e-03 2.390e-03 
*LOADS
*RC U181:B 3.523e-05
*END

*R_NET N55 4.780e-03
*DRIVER sub_x_1/U28:S
*CELL had1_hd
*C2_R1_C1 2.390e-03 7.370e-03 2.390e-03 
*LOADS
*RC U182:B 3.523e-05
*END

*R_NET N56 4.780e-03
*DRIVER sub_x_1/U27:S
*CELL had1_hd
*C2_R1_C1 2.390e-03 7.370e-03 2.390e-03 
*LOADS
*RC U183:B 3.523e-05
*END

*R_NET N57 4.780e-03
*DRIVER sub_x_1/U26:S
*CELL had1_hd
*C2_R1_C1 2.390e-03 7.370e-03 2.390e-03 
*LOADS
*RC U184:B 3.523e-05
*END

*R_NET N58 4.780e-03
*DRIVER sub_x_1/U25:S
*CELL had1_hd
*C2_R1_C1 2.390e-03 7.370e-03 2.390e-03 
*LOADS
*RC U185:B 3.523e-05
*END

*R_NET N59 4.780e-03
*DRIVER sub_x_1/U24:S
*CELL had1_hd
*C2_R1_C1 2.390e-03 7.370e-03 2.390e-03 
*LOADS
*RC U186:B 3.523e-05
*END

*R_NET N60 4.780e-03
*DRIVER sub_x_1/U23:S
*CELL had1_hd
*C2_R1_C1 2.390e-03 7.370e-03 2.390e-03 
*LOADS
*RC U187:B 3.523e-05
*END

*R_NET N61 4.780e-03
*DRIVER sub_x_1/U22:S
*CELL had1_hd
*C2_R1_C1 2.390e-03 7.370e-03 2.390e-03 
*LOADS
*RC U188:B 3.523e-05
*END

*R_NET N62 4.780e-03
*DRIVER sub_x_1/U21:S
*CELL had1_hd
*C2_R1_C1 2.390e-03 7.370e-03 2.390e-03 
*LOADS
*RC U189:B 3.523e-05
*END

*R_NET N63 4.780e-03
*DRIVER sub_x_1/U20:S
*CELL had1_hd
*C2_R1_C1 2.390e-03 7.370e-03 2.390e-03 
*LOADS
*RC U190:B 3.523e-05
*END

*R_NET N64 4.780e-03
*DRIVER sub_x_1/U19:S
*CELL had1_hd
*C2_R1_C1 2.390e-03 7.370e-03 2.390e-03 
*LOADS
*RC U191:B 3.523e-05
*END

*R_NET N65 4.780e-03
*DRIVER sub_x_1/U18:S
*CELL had1_hd
*C2_R1_C1 2.390e-03 7.370e-03 2.390e-03 
*LOADS
*RC U192:B 3.523e-05
*END

*R_NET N66 4.780e-03
*DRIVER sub_x_1/U17:S
*CELL had1_hd
*C2_R1_C1 2.390e-03 7.370e-03 2.390e-03 
*LOADS
*RC U193:B 3.523e-05
*END

*R_NET N67 4.780e-03
*DRIVER sub_x_1/U16:S
*CELL had1_hd
*C2_R1_C1 2.390e-03 7.370e-03 2.390e-03 
*LOADS
*RC U194:B 3.523e-05
*END

*R_NET N68 4.780e-03
*DRIVER sub_x_1/U15:S
*CELL had1_hd
*C2_R1_C1 2.390e-03 7.370e-03 2.390e-03 
*LOADS
*RC U195:B 3.523e-05
*END

*R_NET N69 4.780e-03
*DRIVER sub_x_1/U14:S
*CELL had1_hd
*C2_R1_C1 2.390e-03 7.370e-03 2.390e-03 
*LOADS
*RC U196:B 3.523e-05
*END

*R_NET N70 4.780e-03
*DRIVER sub_x_1/U13:S
*CELL had1_hd
*C2_R1_C1 2.390e-03 7.370e-03 2.390e-03 
*LOADS
*RC U197:B 3.523e-05
*END

*R_NET N71 4.780e-03
*DRIVER sub_x_1/U12:S
*CELL had1_hd
*C2_R1_C1 2.390e-03 7.370e-03 2.390e-03 
*LOADS
*RC U198:B 3.523e-05
*END

*R_NET N72 4.780e-03
*DRIVER sub_x_1/U11:S
*CELL had1_hd
*C2_R1_C1 2.390e-03 7.370e-03 2.390e-03 
*LOADS
*RC U199:B 3.523e-05
*END

*R_NET N73 4.780e-03
*DRIVER sub_x_1/U10:S
*CELL had1_hd
*C2_R1_C1 2.390e-03 7.370e-03 2.390e-03 
*LOADS
*RC U200:B 3.523e-05
*END

*R_NET N74 4.780e-03
*DRIVER sub_x_1/U9:S
*CELL had1_hd
*C2_R1_C1 2.390e-03 7.370e-03 2.390e-03 
*LOADS
*RC U201:B 3.523e-05
*END

*R_NET N75 4.780e-03
*DRIVER sub_x_1/U8:S
*CELL had1_hd
*C2_R1_C1 2.390e-03 7.370e-03 2.390e-03 
*LOADS
*RC U202:B 3.523e-05
*END

*R_NET N76 4.780e-03
*DRIVER sub_x_1/U7:S
*CELL had1_hd
*C2_R1_C1 2.390e-03 7.370e-03 2.390e-03 
*LOADS
*RC U203:B 3.523e-05
*END

*R_NET N77 4.780e-03
*DRIVER sub_x_1/U6:S
*CELL had1_hd
*C2_R1_C1 2.390e-03 7.370e-03 2.390e-03 
*LOADS
*RC U204:B 3.523e-05
*END

*R_NET N78 4.780e-03
*DRIVER sub_x_1/U5:S
*CELL had1_hd
*C2_R1_C1 2.390e-03 7.370e-03 2.390e-03 
*LOADS
*RC U205:B 3.523e-05
*END

*R_NET N79 4.780e-03
*DRIVER sub_x_1/U4:S
*CELL had1_hd
*C2_R1_C1 2.390e-03 7.370e-03 2.390e-03 
*LOADS
*RC U206:B 3.523e-05
*END

*R_NET N80 4.780e-03
*DRIVER sub_x_1/U3:S
*CELL had1_hd
*C2_R1_C1 2.390e-03 7.370e-03 2.390e-03 
*LOADS
*RC U177:B 3.523e-05
*END

*R_NET N81 4.780e-03
*DRIVER sub_x_1/U2:S
*CELL had1_hd
*C2_R1_C1 2.390e-03 7.370e-03 2.390e-03 
*LOADS
*RC U176:B 3.523e-05
*END

*R_NET N82 4.920e-03
*DRIVER sub_x_1/U100:Y
*CELL xn2d1_hd
*C2_R1_C1 2.460e-03 7.370e-03 2.460e-03 
*LOADS
*RC U90:AN 3.626e-05
*END

*R_NET N118 2.674e-02
*DRIVER U425:Y
*CELL ivd1_hd
*C2_R1_C1 1.337e-02 1.549e-02 1.337e-02 
*LOADS
*RC clk_r_REG108_S5:D 4.142e-04
*RC U444:B 4.142e-04
*RC U427:B 4.142e-04
*RC U157:B 4.142e-04
*RC U49:B 4.142e-04
*END

*R_NET N119 5.800e-03
*DRIVER U427:Y
*CELL ao22d1_hd
*C2_R1_C1 2.900e-03 7.370e-03 2.900e-03 
*LOADS
*RC U46:B 4.275e-05
*END

*R_NET N120 5.800e-03
*DRIVER U429:Y
*CELL ao22d1_hd
*C2_R1_C1 2.900e-03 7.370e-03 2.900e-03 
*LOADS
*RC U44:B 4.275e-05
*END

*R_NET N121 5.800e-03
*DRIVER U433:Y
*CELL ao22d1_hd
*C2_R1_C1 2.900e-03 7.370e-03 2.900e-03 
*LOADS
*RC U42:B 4.275e-05
*END

*R_NET N122 5.800e-03
*DRIVER U435:Y
*CELL ao22d1_hd
*C2_R1_C1 2.900e-03 7.370e-03 2.900e-03 
*LOADS
*RC U40:B 4.275e-05
*END

*R_NET N123 5.800e-03
*DRIVER U439:Y
*CELL ao22d1_hd
*C2_R1_C1 2.900e-03 7.370e-03 2.900e-03 
*LOADS
*RC U38:B 4.275e-05
*END

*R_NET N124 5.800e-03
*DRIVER U442:Y
*CELL ao22d1_hd
*C2_R1_C1 2.900e-03 7.370e-03 2.900e-03 
*LOADS
*RC U36:B 4.275e-05
*END

*R_NET N125 5.800e-03
*DRIVER U215:Y
*CELL xo2d1_hd
*C2_R1_C1 2.900e-03 7.370e-03 2.900e-03 
*LOADS
*RC U34:B 4.275e-05
*END

*R_NET sticky 5.190e-03
*DRIVER U226:Y
*CELL or2d1_hd
*C2_R1_C1 2.595e-03 7.370e-03 2.595e-03 
*LOADS
*RC U165:B 3.825e-05
*END

*R_NET N127 4.740e-03
*DRIVER U422:Y
*CELL ad2d1_hd
*C2_R1_C1 2.370e-03 7.370e-03 2.370e-03 
*LOADS
*RC U52:B 3.493e-05
*END

*R_NET N130 4.730e-03
*DRIVER add_x_3/U28:Y
*CELL ivd1_hd
*C2_R1_C1 2.365e-03 7.370e-03 2.365e-03 
*LOADS
*RC U77:D 3.486e-05
*END

*R_NET N131 4.730e-03
*DRIVER add_x_3/U23:S
*CELL had1_hd
*C2_R1_C1 2.365e-03 7.370e-03 2.365e-03 
*LOADS
*RC U76:D 3.486e-05
*END

*R_NET N132 4.730e-03
*DRIVER add_x_3/U22:S
*CELL had1_hd
*C2_R1_C1 2.365e-03 7.370e-03 2.365e-03 
*LOADS
*RC U75:D 3.486e-05
*END

*R_NET N133 4.730e-03
*DRIVER add_x_3/U21:S
*CELL had1_hd
*C2_R1_C1 2.365e-03 7.370e-03 2.365e-03 
*LOADS
*RC U74:D 3.486e-05
*END

*R_NET N134 4.730e-03
*DRIVER add_x_3/U20:S
*CELL had1_hd
*C2_R1_C1 2.365e-03 7.370e-03 2.365e-03 
*LOADS
*RC U73:D 3.486e-05
*END

*R_NET N135 4.730e-03
*DRIVER add_x_3/U19:S
*CELL had1_hd
*C2_R1_C1 2.365e-03 7.370e-03 2.365e-03 
*LOADS
*RC U72:D 3.486e-05
*END

*R_NET N136 4.730e-03
*DRIVER add_x_3/U18:S
*CELL had1_hd
*C2_R1_C1 2.365e-03 7.370e-03 2.365e-03 
*LOADS
*RC U71:D 3.486e-05
*END

*R_NET N137 4.730e-03
*DRIVER add_x_3/U17:S
*CELL had1_hd
*C2_R1_C1 2.365e-03 7.370e-03 2.365e-03 
*LOADS
*RC U70:D 3.486e-05
*END

*R_NET N138 4.730e-03
*DRIVER add_x_3/U16:S
*CELL had1_hd
*C2_R1_C1 2.365e-03 7.370e-03 2.365e-03 
*LOADS
*RC U69:D 3.486e-05
*END

*R_NET N139 4.730e-03
*DRIVER add_x_3/U15:S
*CELL had1_hd
*C2_R1_C1 2.365e-03 7.370e-03 2.365e-03 
*LOADS
*RC U68:D 3.486e-05
*END

*R_NET N140 4.730e-03
*DRIVER add_x_3/U14:S
*CELL had1_hd
*C2_R1_C1 2.365e-03 7.370e-03 2.365e-03 
*LOADS
*RC U67:D 3.486e-05
*END

*R_NET N141 4.730e-03
*DRIVER add_x_3/U13:S
*CELL had1_hd
*C2_R1_C1 2.365e-03 7.370e-03 2.365e-03 
*LOADS
*RC U66:D 3.486e-05
*END

*R_NET N142 4.730e-03
*DRIVER add_x_3/U12:S
*CELL had1_hd
*C2_R1_C1 2.365e-03 7.370e-03 2.365e-03 
*LOADS
*RC U65:D 3.486e-05
*END

*R_NET N143 4.730e-03
*DRIVER add_x_3/U11:S
*CELL had1_hd
*C2_R1_C1 2.365e-03 7.370e-03 2.365e-03 
*LOADS
*RC U64:D 3.486e-05
*END

*R_NET N144 4.730e-03
*DRIVER add_x_3/U10:S
*CELL had1_hd
*C2_R1_C1 2.365e-03 7.370e-03 2.365e-03 
*LOADS
*RC U63:D 3.486e-05
*END

*R_NET N145 4.730e-03
*DRIVER add_x_3/U9:S
*CELL had1_hd
*C2_R1_C1 2.365e-03 7.370e-03 2.365e-03 
*LOADS
*RC U62:D 3.486e-05
*END

*R_NET N146 4.730e-03
*DRIVER add_x_3/U8:S
*CELL had1_hd
*C2_R1_C1 2.365e-03 7.370e-03 2.365e-03 
*LOADS
*RC U61:D 3.486e-05
*END

*R_NET N147 4.730e-03
*DRIVER add_x_3/U7:S
*CELL had1_hd
*C2_R1_C1 2.365e-03 7.370e-03 2.365e-03 
*LOADS
*RC U60:D 3.486e-05
*END

*R_NET N148 4.730e-03
*DRIVER add_x_3/U6:S
*CELL had1_hd
*C2_R1_C1 2.365e-03 7.370e-03 2.365e-03 
*LOADS
*RC U59:D 3.486e-05
*END

*R_NET N149 4.730e-03
*DRIVER add_x_3/U5:S
*CELL had1_hd
*C2_R1_C1 2.365e-03 7.370e-03 2.365e-03 
*LOADS
*RC U58:D 3.486e-05
*END

*R_NET N150 4.730e-03
*DRIVER add_x_3/U4:S
*CELL had1_hd
*C2_R1_C1 2.365e-03 7.370e-03 2.365e-03 
*LOADS
*RC U57:D 3.486e-05
*END

*R_NET N151 4.730e-03
*DRIVER add_x_3/U3:S
*CELL had1_hd
*C2_R1_C1 2.365e-03 7.370e-03 2.365e-03 
*LOADS
*RC U56:D 3.486e-05
*END

*R_NET N152 4.730e-03
*DRIVER add_x_3/U2:S
*CELL had1_hd
*C2_R1_C1 2.365e-03 7.370e-03 2.365e-03 
*LOADS
*RC U55:D 3.486e-05
*END

*R_NET N153 4.730e-03
*DRIVER add_x_3/U27:Y
*CELL xo2d1_hd
*C2_R1_C1 2.365e-03 7.370e-03 2.365e-03 
*LOADS
*RC U54:D 3.486e-05
*END

*R_NET N154 5.900e-03
*DRIVER add_x_4/U12:Y
*CELL ivd1_hd
*C2_R1_C1 2.950e-03 7.370e-03 2.950e-03 
*LOADS
*RC U49:D 4.348e-05
*END

*R_NET N155 5.900e-03
*DRIVER add_x_4/U7:S
*CELL had1_hd
*C2_R1_C1 2.950e-03 7.370e-03 2.950e-03 
*LOADS
*RC U46:D 4.348e-05
*END

*R_NET N156 5.900e-03
*DRIVER add_x_4/U6:S
*CELL had1_hd
*C2_R1_C1 2.950e-03 7.370e-03 2.950e-03 
*LOADS
*RC U44:D 4.348e-05
*END

*R_NET N157 5.900e-03
*DRIVER add_x_4/U5:S
*CELL had1_hd
*C2_R1_C1 2.950e-03 7.370e-03 2.950e-03 
*LOADS
*RC U42:D 4.348e-05
*END

*R_NET N158 5.900e-03
*DRIVER add_x_4/U4:S
*CELL had1_hd
*C2_R1_C1 2.950e-03 7.370e-03 2.950e-03 
*LOADS
*RC U40:D 4.348e-05
*END

*R_NET N159 5.900e-03
*DRIVER add_x_4/U3:S
*CELL had1_hd
*C2_R1_C1 2.950e-03 7.370e-03 2.950e-03 
*LOADS
*RC U38:D 4.348e-05
*END

*R_NET N160 5.900e-03
*DRIVER add_x_4/U2:S
*CELL had1_hd
*C2_R1_C1 2.950e-03 7.370e-03 2.950e-03 
*LOADS
*RC U36:D 4.348e-05
*END

*R_NET N161 5.900e-03
*DRIVER add_x_4/U11:Y
*CELL xo2d1_hd
*C2_R1_C1 2.950e-03 7.370e-03 2.950e-03 
*LOADS
*RC U34:D 4.348e-05
*END

*R_NET N180 6.480e-03
*DRIVER U84:Y
*CELL scg16d1_hd
*C2_R1_C1 3.240e-03 7.370e-03 3.240e-03 
*LOADS
*RC clk_r_REG85_S3:E 4.776e-05
*END

*R_NET N184 1.116e-02
*DRIVER U21:Y
*CELL nr2bd1_hd
*C2_R1_C1 5.580e-03 9.100e-03 5.580e-03 
*LOADS
*RC clk_gate_clk_r_REG173_S1_0/latch:EN 1.016e-04
*RC U85:B 1.016e-04
*END

*R_NET N185 1.023e-02
*DRIVER U22:Y
*CELL nr2d1_hd
*C2_R1_C1 5.115e-03 9.100e-03 5.115e-03 
*LOADS
*RC clk_gate_clk_r_REG141_S2_0/latch:EN 9.309e-05
*RC U79:A 9.309e-05
*END

*R_NET N210 1.885e-02
*DRIVER U35:Y
*CELL scg13d1_hd
*C2_R1_C1 9.425e-03 9.460e-03 9.425e-03 
*LOADS
*RC clk_gate_clk_r_REG17_S3_0/latch:EN 1.783e-04
*RC clk_r_REG61_S3:E 1.783e-04
*RC clk_r_REG15_S3:E 1.783e-04
*END

*R_NET N211 5.535e-02
*DRIVER U50:Y
*CELL scg17d1_hd
*C2_R1_C1 2.767e-02 2.066e-02 2.767e-02 
*LOADS
*RC clk_r_REG107_S4:E 1.144e-03
*RC clk_r_REG104_S4:E 1.144e-03
*RC clk_r_REG101_S4:E 1.144e-03
*RC clk_r_REG98_S4:E 1.144e-03
*RC clk_r_REG95_S4:E 1.144e-03
*RC clk_r_REG92_S4:E 1.144e-03
*RC clk_r_REG89_S4:E 1.144e-03
*RC clk_r_REG86_S4:E 1.144e-03
*END

*R_NET N220 1.528e-02
*DRIVER U53:Y
*CELL scg6d1_hd
*C2_R1_C1 7.640e-03 9.460e-03 7.640e-03 
*LOADS
*RC clk_gate_clk_r_REG13_S3_0/latch:EN 1.445e-04
*RC U35:A 1.445e-04
*RC U50:C 1.445e-04
*END

*R_NET N229 1.866e-02
*DRIVER U87:Y
*CELL nr2bd1_hd
*C2_R1_C1 9.330e-03 9.460e-03 9.330e-03 
*LOADS
*RC clk_r_REG14_S4:E 1.765e-04
*RC clk_r_REG10_S4:E 1.765e-04
*RC U85:A 1.765e-04
*END

*R_NET N230 5.190e-03
*DRIVER U168:Y
*CELL or2d1_hd
*C2_R1_C1 2.595e-03 7.370e-03 2.595e-03 
*LOADS
*RC U229:B 3.825e-05
*END

*R_NET N231 5.190e-03
*DRIVER U229:Y
*CELL or2d1_hd
*C2_R1_C1 2.595e-03 7.370e-03 2.595e-03 
*LOADS
*RC U228:B 3.825e-05
*END

*R_NET N232 5.190e-03
*DRIVER U228:Y
*CELL or2d1_hd
*C2_R1_C1 2.595e-03 7.370e-03 2.595e-03 
*LOADS
*RC U227:B 3.825e-05
*END

*R_NET N233 5.190e-03
*DRIVER U227:Y
*CELL or2d1_hd
*C2_R1_C1 2.595e-03 7.370e-03 2.595e-03 
*LOADS
*RC U226:B 3.825e-05
*END

*R_NET N235 4.740e-03
*DRIVER U128:Y
*CELL ad2d1_hd
*C2_R1_C1 2.370e-03 7.370e-03 2.370e-03 
*LOADS
*RC U127:B 3.493e-05
*END

*R_NET N236 4.740e-03
*DRIVER U127:Y
*CELL ad2d1_hd
*C2_R1_C1 2.370e-03 7.370e-03 2.370e-03 
*LOADS
*RC U126:B 3.493e-05
*END

*R_NET N237 4.740e-03
*DRIVER U126:Y
*CELL ad2d1_hd
*C2_R1_C1 2.370e-03 7.370e-03 2.370e-03 
*LOADS
*RC U125:B 3.493e-05
*END

*R_NET N238 4.740e-03
*DRIVER U125:Y
*CELL ad2d1_hd
*C2_R1_C1 2.370e-03 7.370e-03 2.370e-03 
*LOADS
*RC U136:B 3.493e-05
*END

*R_NET N239 4.740e-03
*DRIVER U136:Y
*CELL ad2d1_hd
*C2_R1_C1 2.370e-03 7.370e-03 2.370e-03 
*LOADS
*RC U135:B 3.493e-05
*END

*R_NET N240 4.740e-03
*DRIVER U135:Y
*CELL ad2d1_hd
*C2_R1_C1 2.370e-03 7.370e-03 2.370e-03 
*LOADS
*RC U134:B 3.493e-05
*END

*R_NET N241 4.740e-03
*DRIVER U134:Y
*CELL ad2d1_hd
*C2_R1_C1 2.370e-03 7.370e-03 2.370e-03 
*LOADS
*RC U133:B 3.493e-05
*END

*R_NET N242 4.740e-03
*DRIVER U133:Y
*CELL ad2d1_hd
*C2_R1_C1 2.370e-03 7.370e-03 2.370e-03 
*LOADS
*RC U144:B 3.493e-05
*END

*R_NET N243 4.740e-03
*DRIVER U144:Y
*CELL ad2d1_hd
*C2_R1_C1 2.370e-03 7.370e-03 2.370e-03 
*LOADS
*RC U143:B 3.493e-05
*END

*R_NET N244 4.740e-03
*DRIVER U143:Y
*CELL ad2d1_hd
*C2_R1_C1 2.370e-03 7.370e-03 2.370e-03 
*LOADS
*RC U142:B 3.493e-05
*END

*R_NET N245 4.740e-03
*DRIVER U142:Y
*CELL ad2d1_hd
*C2_R1_C1 2.370e-03 7.370e-03 2.370e-03 
*LOADS
*RC U141:B 3.493e-05
*END

*R_NET N246 4.740e-03
*DRIVER U141:Y
*CELL ad2d1_hd
*C2_R1_C1 2.370e-03 7.370e-03 2.370e-03 
*LOADS
*RC U152:B 3.493e-05
*END

*R_NET N247 4.740e-03
*DRIVER U152:Y
*CELL ad2d1_hd
*C2_R1_C1 2.370e-03 7.370e-03 2.370e-03 
*LOADS
*RC U151:B 3.493e-05
*END

*R_NET N248 4.740e-03
*DRIVER U151:Y
*CELL ad2d1_hd
*C2_R1_C1 2.370e-03 7.370e-03 2.370e-03 
*LOADS
*RC U150:B 3.493e-05
*END

*R_NET N249 4.740e-03
*DRIVER U150:Y
*CELL ad2d1_hd
*C2_R1_C1 2.370e-03 7.370e-03 2.370e-03 
*LOADS
*RC U149:B 3.493e-05
*END

*R_NET N250 4.740e-03
*DRIVER U149:Y
*CELL ad2d1_hd
*C2_R1_C1 2.370e-03 7.370e-03 2.370e-03 
*LOADS
*RC U163:B 3.493e-05
*END

*R_NET N251 4.740e-03
*DRIVER U163:Y
*CELL ad2d1_hd
*C2_R1_C1 2.370e-03 7.370e-03 2.370e-03 
*LOADS
*RC U162:B 3.493e-05
*END

*R_NET N252 4.740e-03
*DRIVER U162:Y
*CELL ad2d1_hd
*C2_R1_C1 2.370e-03 7.370e-03 2.370e-03 
*LOADS
*RC U161:B 3.493e-05
*END

*R_NET N253 4.740e-03
*DRIVER U161:Y
*CELL ad2d1_hd
*C2_R1_C1 2.370e-03 7.370e-03 2.370e-03 
*LOADS
*RC U160:B 3.493e-05
*END

*R_NET N254 4.740e-03
*DRIVER U160:Y
*CELL ad2d1_hd
*C2_R1_C1 2.370e-03 7.370e-03 2.370e-03 
*LOADS
*RC U113:B 3.493e-05
*END

*R_NET N255 4.740e-03
*DRIVER U113:Y
*CELL ad2d1_hd
*C2_R1_C1 2.370e-03 7.370e-03 2.370e-03 
*LOADS
*RC U112:B 3.493e-05
*END

*R_NET N256 4.740e-03
*DRIVER U112:Y
*CELL ad2d1_hd
*C2_R1_C1 2.370e-03 7.370e-03 2.370e-03 
*LOADS
*RC U111:B 3.493e-05
*END

*R_NET N257 4.730e-03
*DRIVER U111:Y
*CELL ad2d1_hd
*C2_R1_C1 2.365e-03 7.370e-03 2.365e-03 
*LOADS
*RC U50:A 3.486e-05
*END

*R_NET N258 5.190e-03
*DRIVER U116:Y
*CELL or2d1_hd
*C2_R1_C1 2.595e-03 7.370e-03 2.595e-03 
*LOADS
*RC U115:B 3.825e-05
*END

*R_NET N259 5.190e-03
*DRIVER U115:Y
*CELL or2d1_hd
*C2_R1_C1 2.595e-03 7.370e-03 2.595e-03 
*LOADS
*RC U114:B 3.825e-05
*END

*R_NET N260 5.190e-03
*DRIVER U114:Y
*CELL or2d1_hd
*C2_R1_C1 2.595e-03 7.370e-03 2.595e-03 
*LOADS
*RC U120:B 3.825e-05
*END

*R_NET N261 5.190e-03
*DRIVER U120:Y
*CELL or2d1_hd
*C2_R1_C1 2.595e-03 7.370e-03 2.595e-03 
*LOADS
*RC U119:B 3.825e-05
*END

*R_NET N262 5.190e-03
*DRIVER U119:Y
*CELL or2d1_hd
*C2_R1_C1 2.595e-03 7.370e-03 2.595e-03 
*LOADS
*RC U118:B 3.825e-05
*END

*R_NET N263 5.190e-03
*DRIVER U118:Y
*CELL or2d1_hd
*C2_R1_C1 2.595e-03 7.370e-03 2.595e-03 
*LOADS
*RC U117:B 3.825e-05
*END

*R_NET N264 5.190e-03
*DRIVER U117:Y
*CELL or2d1_hd
*C2_R1_C1 2.595e-03 7.370e-03 2.595e-03 
*LOADS
*RC U124:B 3.825e-05
*END

*R_NET N265 5.190e-03
*DRIVER U124:Y
*CELL or2d1_hd
*C2_R1_C1 2.595e-03 7.370e-03 2.595e-03 
*LOADS
*RC U123:B 3.825e-05
*END

*R_NET N266 5.190e-03
*DRIVER U123:Y
*CELL or2d1_hd
*C2_R1_C1 2.595e-03 7.370e-03 2.595e-03 
*LOADS
*RC U122:B 3.825e-05
*END

*R_NET N267 5.190e-03
*DRIVER U122:Y
*CELL or2d1_hd
*C2_R1_C1 2.595e-03 7.370e-03 2.595e-03 
*LOADS
*RC U121:B 3.825e-05
*END

*R_NET N268 5.190e-03
*DRIVER U121:Y
*CELL or2d1_hd
*C2_R1_C1 2.595e-03 7.370e-03 2.595e-03 
*LOADS
*RC U132:B 3.825e-05
*END

*R_NET N269 5.190e-03
*DRIVER U132:Y
*CELL or2d1_hd
*C2_R1_C1 2.595e-03 7.370e-03 2.595e-03 
*LOADS
*RC U131:B 3.825e-05
*END

*R_NET N270 5.190e-03
*DRIVER U131:Y
*CELL or2d1_hd
*C2_R1_C1 2.595e-03 7.370e-03 2.595e-03 
*LOADS
*RC U130:B 3.825e-05
*END

*R_NET N271 5.190e-03
*DRIVER U130:Y
*CELL or2d1_hd
*C2_R1_C1 2.595e-03 7.370e-03 2.595e-03 
*LOADS
*RC U129:B 3.825e-05
*END

*R_NET N272 5.190e-03
*DRIVER U129:Y
*CELL or2d1_hd
*C2_R1_C1 2.595e-03 7.370e-03 2.595e-03 
*LOADS
*RC U140:B 3.825e-05
*END

*R_NET N273 5.190e-03
*DRIVER U140:Y
*CELL or2d1_hd
*C2_R1_C1 2.595e-03 7.370e-03 2.595e-03 
*LOADS
*RC U139:B 3.825e-05
*END

*R_NET N274 5.190e-03
*DRIVER U139:Y
*CELL or2d1_hd
*C2_R1_C1 2.595e-03 7.370e-03 2.595e-03 
*LOADS
*RC U138:B 3.825e-05
*END

*R_NET N275 5.190e-03
*DRIVER U138:Y
*CELL or2d1_hd
*C2_R1_C1 2.595e-03 7.370e-03 2.595e-03 
*LOADS
*RC U137:B 3.825e-05
*END

*R_NET N276 5.190e-03
*DRIVER U137:Y
*CELL or2d1_hd
*C2_R1_C1 2.595e-03 7.370e-03 2.595e-03 
*LOADS
*RC U148:B 3.825e-05
*END

*R_NET N277 5.190e-03
*DRIVER U148:Y
*CELL or2d1_hd
*C2_R1_C1 2.595e-03 7.370e-03 2.595e-03 
*LOADS
*RC U147:B 3.825e-05
*END

*R_NET N278 5.190e-03
*DRIVER U147:Y
*CELL or2d1_hd
*C2_R1_C1 2.595e-03 7.370e-03 2.595e-03 
*LOADS
*RC U146:B 3.825e-05
*END

*R_NET N279 5.190e-03
*DRIVER U146:Y
*CELL or2d1_hd
*C2_R1_C1 2.595e-03 7.370e-03 2.595e-03 
*LOADS
*RC U145:B 3.825e-05
*END

*R_NET N280 5.190e-03
*DRIVER U145:Y
*CELL or2d1_hd
*C2_R1_C1 2.595e-03 7.370e-03 2.595e-03 
*LOADS
*RC U156:B 3.825e-05
*END

*R_NET N281 5.190e-03
*DRIVER U156:Y
*CELL or2d1_hd
*C2_R1_C1 2.595e-03 7.370e-03 2.595e-03 
*LOADS
*RC U155:B 3.825e-05
*END

*R_NET N282 5.190e-03
*DRIVER U155:Y
*CELL or2d1_hd
*C2_R1_C1 2.595e-03 7.370e-03 2.595e-03 
*LOADS
*RC U154:B 3.825e-05
*END

*R_NET N283 5.190e-03
*DRIVER U154:Y
*CELL or2d1_hd
*C2_R1_C1 2.595e-03 7.370e-03 2.595e-03 
*LOADS
*RC U153:B 3.825e-05
*END

*R_NET N284 5.190e-03
*DRIVER U153:Y
*CELL or2d1_hd
*C2_R1_C1 2.595e-03 7.370e-03 2.595e-03 
*LOADS
*RC U109:B 3.825e-05
*END

*R_NET N285 5.190e-03
*DRIVER U109:Y
*CELL or2d1_hd
*C2_R1_C1 2.595e-03 7.370e-03 2.595e-03 
*LOADS
*RC U108:B 3.825e-05
*END

*R_NET N286 5.190e-03
*DRIVER U108:Y
*CELL or2d1_hd
*C2_R1_C1 2.595e-03 7.370e-03 2.595e-03 
*LOADS
*RC U107:B 3.825e-05
*END

*R_NET N287 5.640e-03
*DRIVER U107:Y
*CELL or2d1_hd
*C2_R1_C1 2.820e-03 7.370e-03 2.820e-03 
*LOADS
*RC U412:B 4.157e-05
*END

*R_NET N293 5.900e-03
*DRIVER U421:Y
*CELL or4d1_hd
*C2_R1_C1 2.950e-03 7.370e-03 2.950e-03 
*LOADS
*RC U85:C 4.348e-05
*END

*R_NET N305 5.190e-03
*DRIVER U231:Y
*CELL or2d1_hd
*C2_R1_C1 2.595e-03 7.370e-03 2.595e-03 
*LOADS
*RC U79:B 3.825e-05
*END

*R_NET N308 4.500e-03
*DRIVER U165:Y
*CELL or2d1_hd
*C2_R1_C1 2.250e-03 7.370e-03 2.250e-03 
*LOADS
*RC clk_r_REG10_S4:D 3.316e-05
*END

*R_NET N309 4.740e-03
*DRIVER U164:Y
*CELL or2d1_hd
*C2_R1_C1 2.370e-03 7.370e-03 2.370e-03 
*LOADS
*RC U422:B 3.493e-05
*END

*R_NET n1 1.399e-02
*DRIVER U3:Y
*CELL ivd1_hd
*C2_R1_C1 6.995e-03 7.370e-03 6.995e-03 
*LOADS
*RC U11:A 1.031e-04
*END

*R_NET n2 1.399e-02
*DRIVER U4:Y
*CELL ivd1_hd
*C2_R1_C1 6.995e-03 7.370e-03 6.995e-03 
*LOADS
*RC U12:A 1.031e-04
*END

*R_NET n3 1.399e-02
*DRIVER U5:Y
*CELL ivd1_hd
*C2_R1_C1 6.995e-03 7.370e-03 6.995e-03 
*LOADS
*RC U15:A 1.031e-04
*END

*R_NET n4 1.399e-02
*DRIVER U6:Y
*CELL ivd1_hd
*C2_R1_C1 6.995e-03 7.370e-03 6.995e-03 
*LOADS
*RC U14:A 1.031e-04
*END

*R_NET n5 1.399e-02
*DRIVER U7:Y
*CELL ivd1_hd
*C2_R1_C1 6.995e-03 7.370e-03 6.995e-03 
*LOADS
*RC U13:A 1.031e-04
*END

*R_NET n6 1.240e-01
*DRIVER U237:Y
*CELL ivd2_hd
*C2_R1_C1 6.198e-02 3.748e-02 6.198e-02 
*LOADS
*RC U206:D 4.646e-03
*RC U205:D 4.646e-03
*RC U204:D 4.646e-03
*RC U203:D 4.646e-03
*RC U202:D 4.646e-03
*RC U201:D 4.646e-03
*RC U200:D 4.646e-03
*RC U199:D 4.646e-03
*RC U198:D 4.646e-03
*RC U197:D 4.646e-03
*RC U196:D 4.646e-03
*RC U195:D 4.646e-03
*RC U194:D 4.646e-03
*RC U193:D 4.646e-03
*RC U192:D 4.646e-03
*RC U191:D 4.646e-03
*RC U190:D 4.646e-03
*RC U189:D 4.646e-03
*RC U188:D 4.646e-03
*RC U187:D 4.646e-03
*RC U186:D 4.646e-03
*RC U185:D 4.646e-03
*RC U184:D 4.646e-03
*RC U183:D 4.646e-03
*RC U182:D 4.646e-03
*RC U181:D 4.646e-03
*RC U180:D 4.646e-03
*RC U179:D 4.646e-03
*RC U178:D 4.646e-03
*RC U177:D 4.646e-03
*RC U176:D 4.646e-03
*RC U90:B 4.646e-03
*RC U89:B 4.646e-03
*END

*R_NET n7 5.200e-03
*DRIVER U34:Y
*CELL ao22d1_hd
*C2_R1_C1 2.600e-03 7.370e-03 2.600e-03 
*LOADS
*RC U214:A 3.832e-05
*END

*R_NET n8 2.170e-02
*DRIVER U81:Y
*CELL ivd1_hd
*C2_R1_C1 1.085e-02 1.094e-02 1.085e-02 
*LOADS
*RC U22:B 2.374e-04
*RC U214:B 2.374e-04
*RC U213:B 2.374e-04
*RC U212:B 2.374e-04
*END

*R_NET n9 5.200e-03
*DRIVER U36:Y
*CELL ao22d1_hd
*C2_R1_C1 2.600e-03 7.370e-03 2.600e-03 
*LOADS
*RC U213:A 3.832e-05
*END

*R_NET n10 5.200e-03