*SPEF "IEEE 1481-1999"
*DESIGN "mpr121_controller"
*DATE "Wed Aug 26 17:12:41 2020"
*VENDOR "SYNOPSYS INC"
*PROGRAM "Synopsys Design Compiler cmos"
*VERSION "F-2011.09-SP5-3"
*DESIGN_FLOW "SYNTHESIS"
*DIVIDER /
*DELIMITER :
*BUS_DELIMITER []
*T_UNIT 1.0 NS
*C_UNIT 1.0 PF
*R_UNIT 1.0 KOHM
*L_UNIT 1.0 HENRY

*PORTS

o_MPR121_DATA_OUT\[7\] O *L 1.035e-02 *S 1.440e-01 1.837e-01 
o_MPR121_DATA_OUT\[6\] O *L 1.035e-02 *S 1.440e-01 1.837e-01 
o_MPR121_DATA_OUT\[5\] O *L 1.035e-02 *S 1.440e-01 1.837e-01 
o_MPR121_DATA_OUT\[4\] O *L 1.035e-02 *S 1.440e-01 1.837e-01 
o_MPR121_DATA_OUT\[3\] O *L 1.035e-02 *S 1.440e-01 1.837e-01 
o_MPR121_DATA_OUT\[2\] O *L 1.035e-02 *S 1.440e-01 1.837e-01 
o_MPR121_DATA_OUT\[1\] O *L 1.035e-02 *S 1.440e-01 1.837e-01 
o_MPR121_DATA_OUT\[0\] O *L 1.035e-02 *S 1.440e-01 1.837e-01 
o_MPR121_REG_ADDR\[7\] I *L 1.900e-03 *S 1.339e-01 1.733e-01 *D fd2qd1_hd 
o_MPR121_REG_ADDR\[6\] I *L 1.900e-03 *S 1.355e-01 1.750e-01 *D fd2qd1_hd 
o_MPR121_REG_ADDR\[5\] I *L 1.900e-03 *S 1.355e-01 1.750e-01 *D fd2qd1_hd 
o_MPR121_REG_ADDR\[4\] I *L 1.900e-03 *S 1.355e-01 1.750e-01 *D fd2qd1_hd 
o_MPR121_REG_ADDR\[3\] I *L 1.900e-03 *S 1.355e-01 1.750e-01 *D fd2qd1_hd 
o_MPR121_REG_ADDR\[2\] I *L 1.900e-03 *S 1.355e-01 1.750e-01 *D fd2qd1_hd 
o_MPR121_REG_ADDR\[1\] I *L 1.900e-03 *S 1.355e-01 1.750e-01 *D fd2qd1_hd 
o_MPR121_REG_ADDR\[0\] I *L 1.900e-03 *S 1.328e-01 1.722e-01 *D fd2qd1_hd 
i_MPR121_DATA_IN\[7\] I *L 1.900e-03 *S 1.355e-01 1.750e-01 *D fd2qd1_hd 
i_MPR121_DATA_IN\[6\] I *L 1.900e-03 *S 1.339e-01 1.733e-01 *D fd2qd1_hd 
i_MPR121_DATA_IN\[5\] I *L 0.000e+00 *S 0.000e+00 0.000e+00 
i_MPR121_DATA_IN\[4\] I *L 1.900e-03 *S 1.355e-01 1.750e-01 *D fd2qd1_hd 
i_MPR121_DATA_IN\[3\] I *L 1.900e-03 *S 1.355e-01 1.750e-01 *D fd2qd1_hd 
i_MPR121_DATA_IN\[2\] I *L 1.900e-03 *S 1.355e-01 1.750e-01 *D fd2qd1_hd 
i_MPR121_DATA_IN\[1\] I *L 1.900e-03 *S 1.339e-01 1.733e-01 *D fd2qd1_hd 
i_MPR121_DATA_IN\[0\] I *L 1.900e-03 *S 1.339e-01 1.733e-01 *D fd2qd1_hd 
i_MPR121_WRITE_ENABLE I *L 1.900e-03 *S 3.400e-01 3.508e-01 *D fd2qd1_hd 
i_MPR121_READ_ENABLE I *L 1.900e-03 *S 3.459e-01 3.556e-01 *D fd2qd1_hd 
o_MPR121_INIT_SET O *L 1.035e-02 *S 2.031e-01 2.391e-01 
o_MPR121_BUSY O *L 1.035e-02 *S 4.137e-01 4.016e-01 
o_MPR121_FAIL O *L 1.035e-02 *S 1.977e-01 1.477e-01 
i_I2C_SCL_IN I *L 0.000e+00 *S 0.000e+00 0.000e+00 
i_I2C_SDA_IN I *L 0.000e+00 *S 0.000e+00 0.000e+00 
o_I2C_SCL_OUT O *L 1.035e-02 *S 3.486e-01 2.426e-01 
o_I2C_SDA_OUT O *L 1.035e-02 *S 1.539e-01 1.145e-01 
o_I2C_SCL_EN O *L 1.035e-02 *S 1.314e-01 8.951e-02 
o_I2C_SDA_EN O *L 1.035e-02 *S 2.761e-01 2.083e-01 
i_CLK I *L 0.000e+00 *S 0.000e+00 0.000e+00 
i_RSTN I *L 2.176e-02 *S 0.000e+00 0.000e+00 *D nid1_hd 

*R_NET o_MPR121_DATA_OUT\[7\] 1.579e-02
*DRIVER o_MPR121_DATA_OUT_reg_7_:Q
*CELL fd2qd1_hd
*C2_R1_C1 7.895e-03 8.080e-03 7.895e-03 
*LOADS
*RC o_MPR121_DATA_OUT\[7\] 1.276e-04
*END

*R_NET o_MPR121_DATA_OUT\[6\] 1.579e-02
*DRIVER o_MPR121_DATA_OUT_reg_6_:Q
*CELL fd2qd1_hd
*C2_R1_C1 7.895e-03 8.080e-03 7.895e-03 
*LOADS
*RC o_MPR121_DATA_OUT\[6\] 1.276e-04
*END

*R_NET o_MPR121_DATA_OUT\[5\] 1.579e-02
*DRIVER o_MPR121_DATA_OUT_reg_5_:Q
*CELL fd2qd1_hd
*C2_R1_C1 7.895e-03 8.080e-03 7.895e-03 
*LOADS
*RC o_MPR121_DATA_OUT\[5\] 1.276e-04
*END

*R_NET o_MPR121_DATA_OUT\[4\] 1.579e-02
*DRIVER o_MPR121_DATA_OUT_reg_4_:Q
*CELL fd2qd1_hd
*C2_R1_C1 7.895e-03 8.080e-03 7.895e-03 
*LOADS
*RC o_MPR121_DATA_OUT\[4\] 1.276e-04
*END

*R_NET o_MPR121_DATA_OUT\[3\] 1.579e-02
*DRIVER o_MPR121_DATA_OUT_reg_3_:Q
*CELL fd2qd1_hd
*C2_R1_C1 7.895e-03 8.080e-03 7.895e-03 
*LOADS
*RC o_MPR121_DATA_OUT\[3\] 1.276e-04
*END

*R_NET o_MPR121_DATA_OUT\[2\] 1.579e-02
*DRIVER o_MPR121_DATA_OUT_reg_2_:Q
*CELL fd2qd1_hd
*C2_R1_C1 7.895e-03 8.080e-03 7.895e-03 
*LOADS
*RC o_MPR121_DATA_OUT\[2\] 1.276e-04
*END

*R_NET o_MPR121_DATA_OUT\[1\] 1.579e-02
*DRIVER o_MPR121_DATA_OUT_reg_1_:Q
*CELL fd2qd1_hd
*C2_R1_C1 7.895e-03 8.080e-03 7.895e-03 
*LOADS
*RC o_MPR121_DATA_OUT\[1\] 1.276e-04
*END

*R_NET o_MPR121_DATA_OUT\[0\] 1.579e-02
*DRIVER o_MPR121_DATA_OUT_reg_0_:Q
*CELL fd2qd1_hd
*C2_R1_C1 7.895e-03 8.080e-03 7.895e-03 
*LOADS
*RC o_MPR121_DATA_OUT\[0\] 1.276e-04
*END

*R_NET o_MPR121_REG_ADDR\[7\] 1.458e-02
*DRIVER o_MPR121_REG_ADDR\[7\]
*CELL fd2qd1_hd
*C2_R1_C1 7.290e-03 1.275e-02 7.290e-03 
*LOADS
*RC U276:B 1.859e-04
*END

*R_NET o_MPR121_REG_ADDR\[6\] 1.477e-02
*DRIVER o_MPR121_REG_ADDR\[6\]
*CELL fd2qd1_hd
*C2_R1_C1 7.385e-03 1.275e-02 7.385e-03 
*LOADS
*RC U281:AN 1.883e-04
*END

*R_NET o_MPR121_REG_ADDR\[5\] 1.477e-02
*DRIVER o_MPR121_REG_ADDR\[5\]
*CELL fd2qd1_hd
*C2_R1_C1 7.385e-03 1.275e-02 7.385e-03 
*LOADS
*RC U282:AN 1.883e-04
*END

*R_NET o_MPR121_REG_ADDR\[4\] 1.477e-02
*DRIVER o_MPR121_REG_ADDR\[4\]
*CELL fd2qd1_hd
*C2_R1_C1 7.385e-03 1.275e-02 7.385e-03 
*LOADS
*RC U283:AN 1.883e-04
*END

*R_NET o_MPR121_REG_ADDR\[3\] 1.477e-02
*DRIVER o_MPR121_REG_ADDR\[3\]
*CELL fd2qd1_hd
*C2_R1_C1 7.385e-03 1.275e-02 7.385e-03 
*LOADS
*RC U284:AN 1.883e-04
*END

*R_NET o_MPR121_REG_ADDR\[2\] 1.477e-02
*DRIVER o_MPR121_REG_ADDR\[2\]
*CELL fd2qd1_hd
*C2_R1_C1 7.385e-03 1.275e-02 7.385e-03 
*LOADS
*RC U285:AN 1.883e-04
*END

*R_NET o_MPR121_REG_ADDR\[1\] 1.477e-02
*DRIVER o_MPR121_REG_ADDR\[1\]
*CELL fd2qd1_hd
*C2_R1_C1 7.385e-03 1.275e-02 7.385e-03 
*LOADS
*RC U286:AN 1.883e-04
*END

*R_NET o_MPR121_REG_ADDR\[0\] 1.444e-02
*DRIVER o_MPR121_REG_ADDR\[0\]
*CELL fd2qd1_hd
*C2_R1_C1 7.220e-03 1.275e-02 7.220e-03 
*LOADS
*RC U288:A 1.841e-04
*END

*R_NET i_MPR121_DATA_IN\[7\] 1.477e-02
*DRIVER i_MPR121_DATA_IN\[7\]
*CELL fd2qd1_hd
*C2_R1_C1 7.385e-03 1.275e-02 7.385e-03 
*LOADS
*RC U268:AN 1.883e-04
*END

*R_NET i_MPR121_DATA_IN\[6\] 1.458e-02
*DRIVER i_MPR121_DATA_IN\[6\]
*CELL fd2qd1_hd
*C2_R1_C1 7.290e-03 1.275e-02 7.290e-03 
*LOADS
*RC U269:B 1.859e-04
*END

*R_NET i_MPR121_DATA_IN\[5\] 7.020e-03
*DRIVER i_MPR121_DATA_IN\[5\]
*CELL NULL
*C2_R1_C1 3.510e-03 8.080e-03 3.510e-03 
*LOADS
*RC U270:B 5.672e-05
*END

*R_NET i_MPR121_DATA_IN\[4\] 1.477e-02
*DRIVER i_MPR121_DATA_IN\[4\]
*CELL fd2qd1_hd
*C2_R1_C1 7.385e-03 1.275e-02 7.385e-03 
*LOADS
*RC U271:AN 1.883e-04
*END

*R_NET i_MPR121_DATA_IN\[3\] 1.477e-02
*DRIVER i_MPR121_DATA_IN\[3\]
*CELL fd2qd1_hd
*C2_R1_C1 7.385e-03 1.275e-02 7.385e-03 
*LOADS
*RC U272:AN 1.883e-04
*END

*R_NET i_MPR121_DATA_IN\[2\] 1.477e-02
*DRIVER i_MPR121_DATA_IN\[2\]
*CELL fd2qd1_hd
*C2_R1_C1 7.385e-03 1.275e-02 7.385e-03 
*LOADS
*RC U273:AN 1.883e-04
*END

*R_NET i_MPR121_DATA_IN\[1\] 1.458e-02
*DRIVER i_MPR121_DATA_IN\[1\]
*CELL fd2qd1_hd
*C2_R1_C1 7.290e-03 1.275e-02 7.290e-03 
*LOADS
*RC U274:B 1.859e-04
*END

*R_NET i_MPR121_DATA_IN\[0\] 1.458e-02
*DRIVER i_MPR121_DATA_IN\[0\]
*CELL fd2qd1_hd
*C2_R1_C1 7.290e-03 1.275e-02 7.290e-03 
*LOADS
*RC U275:B 1.859e-04
*END

*R_NET i_MPR121_WRITE_ENABLE 3.999e-02
*DRIVER i_MPR121_WRITE_ENABLE
*CELL fd2qd1_hd
*C2_R1_C1 2.000e-02 2.126e-02 2.000e-02 
*LOADS
*RC U243:A 8.502e-04
*RC U222:B 8.502e-04
*RC U221:A 8.502e-04
*RC U149:A 8.502e-04
*END

*R_NET i_MPR121_READ_ENABLE 4.072e-02
*DRIVER i_MPR121_READ_ENABLE
*CELL fd2qd1_hd
*C2_R1_C1 2.036e-02 2.126e-02 2.036e-02 
*LOADS
*RC U267:A 8.657e-04
*RC U243:B 8.657e-04
*RC U229:C 8.657e-04
*RC U158:B 8.657e-04
*END

*R_NET i_I2C_SCL_IN 6.900e-03
*DRIVER i_I2C_SCL_IN
*CELL NULL
*C2_R1_C1 3.450e-03 8.080e-03 3.450e-03 
*LOADS
*RC i2c_master/clk_r_REG70_S1:D 5.575e-05
*END

*R_NET i_I2C_SDA_IN 6.900e-03
*DRIVER i_I2C_SDA_IN
*CELL NULL
*C2_R1_C1 3.450e-03 8.080e-03 3.450e-03 
*LOADS
*RC i2c_master/clk_r_REG72_S1:D 5.575e-05
*END

*R_NET i_CLK 7.650e-02
*DRIVER i_CLK
*CELL NULL
*C2_R1_C1 3.825e-02 0.000e+00 3.825e-02 
*LOADS
*RC clk_gate_r_i2c_reg_addr_reg_0__0/latch:CK 0.000e+00
*RC clk_gate_r_clk_counter_reg_8__0/latch:CK 0.000e+00
*RC clk_gate_r_i2c_data_in_reg_0__0/latch:CK 0.000e+00
*RC clk_gate_o_MPR121_DATA_OUT_reg_7__0/latch:CK 0.000e+00
*RC clk_gate_r_i2c_write_reg_0/latch:CK 0.000e+00
*RC i2c_master/clk_gate_clk_r_REG59_S7_0/latch:CK 0.000e+00
*RC i2c_master/clk_gate_clk_r_REG38_S9_0/latch:CK 0.000e+00
*RC i2c_master/clk_gate_clk_r_REG32_S7_0/latch:CK 0.000e+00
*RC i2c_master/clk_gate_clk_r_REG0_S1_0/latch:CK 0.000e+00
*RC i2c_master/clk_gate_clk_r_REG9_S5_0/latch:CK 0.000e+00
*RC i2c_master/async_rstn_synchronizer/r_ff_reg:CK 0.000e+00
*RC i2c_master/async_rstn_synchronizer/o_RSTN_reg:CK 0.000e+00
*RC i2c_master/clk_r_REG71_S2:CK 0.000e+00
*RC i2c_master/clk_r_REG74_S2:CK 0.000e+00
*RC i2c_master/clk_r_REG70_S1:CK 0.000e+00
*RC i2c_master/clk_r_REG2_S3:CK 0.000e+00
*RC i2c_master/clk_r_REG75_S1:CK 0.000e+00
*RC i2c_master/clk_r_REG3_S4:CK 0.000e+00
*RC i2c_master/clk_r_REG30_S5:CK 0.000e+00
*RC i2c_master/clk_r_REG34_S5:CK 0.000e+00
*RC i2c_master/clk_r_REG33_S8:CK 0.000e+00
*RC i2c_master/clk_r_REG29_S5:CK 0.000e+00
*RC i2c_master/clk_r_REG72_S1:CK 0.000e+00
*RC i2c_master/clk_r_REG28_S5:CK 0.000e+00
*RC r_pstate_reg_3_:CK 0.000e+00
*RC r_pstate_reg_4_:CK 0.000e+00
*RC r_pstate_reg_1_:CK 0.000e+00
*RC o_MPR121_BUSY_reg:CK 0.000e+00
*RC r_pstate_reg_5_:CK 0.000e+00
*RC r_pstate_reg_2_:CK 0.000e+00
*RC r_pstate_reg_0_:CK 0.000e+00
*RC r_lstate_reg_1_:CK 0.000e+00
*RC r_i2c_data_in_valid_reg:CK 0.000e+00
*RC r_i2c_data_out_ready_reg:CK 0.000e+00
*RC r_i2c_stop_reg:CK 0.000e+00
*RC r_i2c_cmd_valid_reg:CK 0.000e+00
*RC r_i2c_data_in_last_reg:CK 0.000e+00
*RC r_lstate_reg_0_:CK 0.000e+00
*RC async_rstn_synchronizer/r_ff_reg:CK 0.000e+00
*RC async_rstn_synchronizer/o_RSTN_reg:CK 0.000e+00
*END

*R_NET o_MPR121_INIT_SET 2.298e-02
*DRIVER o_MPR121_INIT_SET_reg:Q
*CELL fd2qd1_hd
*C2_R1_C1 1.149e-02 1.275e-02 1.149e-02 
*LOADS
*RC o_MPR121_INIT_SET 2.930e-04
*RC U169:C 2.930e-04
*END

*R_NET o_MPR121_BUSY 4.924e-02
*DRIVER o_MPR121_BUSY_reg:Q
*CELL fd2qd1_hd
*C2_R1_C1 2.462e-02 2.338e-02 2.462e-02 
*LOADS
*RC o_MPR121_BUSY 1.151e-03
*RC U196:D 1.151e-03
*END

*R_NET o_MPR121_FAIL 2.145e-02
*DRIVER i2c_master/clk_r_REG29_S5:Q
*CELL fd3qd1_hd
*C2_R1_C1 1.072e-02 1.275e-02 1.072e-02 
*LOADS
*RC o_MPR121_FAIL 2.735e-04
*END

*R_NET o_I2C_SCL_OUT 4.028e-02
*DRIVER i2c_master/clk_r_REG23_S4:Q
*CELL fd3qd1_hd
*C2_R1_C1 2.014e-02 1.924e-02 2.014e-02 
*LOADS
*RC i2c_master/U914:A 7.750e-04
*RC i2c_master/U635:A 7.750e-04
*RC i2c_master/U88:C 7.750e-04
*RC o_I2C_SCL_OUT 7.750e-04
*END

*R_NET o_I2C_SDA_OUT 1.579e-02
*DRIVER i2c_master/clk_r_REG5_S4:Q
*CELL fd3d1_hd
*C2_R1_C1 7.895e-03 8.080e-03 7.895e-03 
*LOADS
*RC o_I2C_SDA_OUT 1.276e-04
*END

*R_NET o_I2C_SCL_EN 1.579e-02
*DRIVER i2c_master/U914:Y
*CELL nid1_hd
*C2_R1_C1 7.895e-03 8.080e-03 7.895e-03 
*LOADS
*RC o_I2C_SCL_EN 1.276e-04
*END

*R_NET o_I2C_SDA_EN 3.216e-02
*DRIVER i2c_master/clk_r_REG5_S4:QN
*CELL fd3d1_hd
*C2_R1_C1 1.608e-02 1.469e-02 1.608e-02 
*LOADS
*RC i2c_master/U74:A 4.724e-04
*RC i2c_master/U71:A 4.724e-04
*RC o_I2C_SDA_EN 4.724e-04
*END

*R_NET w_rstn 6.736e-02
*DRIVER async_rstn_synchronizer/o_RSTN_reg:Q
*CELL fd2qd1_hd
*C2_R1_C1 3.368e-02 2.261e-02 3.368e-02 
*LOADS
*RC U1:AN 1.523e-03
*RC r_pstate_reg_3_:RN 1.523e-03
*RC r_pstate_reg_4_:RN 1.523e-03
*RC r_pstate_reg_1_:RN 1.523e-03
*RC o_MPR121_BUSY_reg:RN 1.523e-03
*RC r_pstate_reg_5_:RN 1.523e-03
*RC r_pstate_reg_2_:RN 1.523e-03
*RC r_pstate_reg_0_:RN 1.523e-03
*RC r_i2c_data_in_reg_1_:RN 1.523e-03
*RC r_i2c_data_in_reg_2_:RN 1.523e-03
*RC r_i2c_data_in_reg_3_:RN 1.523e-03
*RC r_i2c_data_in_reg_6_:RN 1.523e-03
*RC r_i2c_data_in_reg_7_:RN 1.523e-03
*RC r_i2c_stop_reg:RN 1.523e-03
*RC r_i2c_write_multiple_reg:RN 1.523e-03
*RC U57:A 1.523e-03
*END

*R_NET r_i2c_start 9.180e-03
*DRIVER r_i2c_start_reg:Q
*CELL fd2qd1_hd
*C2_R1_C1 4.590e-03 9.100e-03 4.590e-03 
*LOADS
*RC i2c_master/U468:A 8.354e-05
*RC i2c_master/U355:A 8.354e-05
*END

*R_NET r_i2c_read 2.084e-02
*DRIVER r_i2c_read_reg:Q
*CELL fd2qd1_hd
*C2_R1_C1 1.042e-02 1.094e-02 1.042e-02 
*LOADS
*RC i2c_master/U274:A 2.280e-04
*RC i2c_master/U925:A 2.280e-04
*RC i2c_master/U851:B 2.280e-04
*RC i2c_master/U344:A 2.280e-04
*END

*R_NET r_i2c_write 1.502e-02
*DRIVER r_i2c_write_reg:Q
*CELL fd2qd1_hd
*C2_R1_C1 7.510e-03 9.460e-03 7.510e-03 
*LOADS
*RC i2c_master/U867:B 1.421e-04
*RC i2c_master/U345:A 1.421e-04
*RC i2c_master/U344:B 1.421e-04
*END

*R_NET r_i2c_write_multiple 1.508e-02
*DRIVER r_i2c_write_multiple_reg:Q
*CELL fd2qd1_hd
*C2_R1_C1 7.540e-03 9.460e-03 7.540e-03 
*LOADS
*RC i2c_master/U244:A 1.427e-04
*RC i2c_master/U921:B 1.427e-04
*RC i2c_master/U345:B 1.427e-04
*END

*R_NET r_i2c_stop 1.389e-02
*DRIVER r_i2c_stop_reg:Q
*CELL fd2qd1_hd
*C2_R1_C1 6.945e-03 9.460e-03 6.945e-03 
*LOADS
*RC U14:D0 1.314e-04
*RC i2c_master/U245:A 1.314e-04
*RC i2c_master/U922:A 1.314e-04
*END

*R_NET r_i2c_cmd_valid 1.443e-02
*DRIVER r_i2c_cmd_valid_reg:Q
*CELL fd2qd1_hd
*C2_R1_C1 7.215e-03 9.460e-03 7.215e-03 
*LOADS
*RC U206:A 1.365e-04
*RC i2c_master/U868:B 1.365e-04
*RC i2c_master/U352:A 1.365e-04
*END

*R_NET r_i2c_data_in_valid 9.010e-03
*DRIVER r_i2c_data_in_valid_reg:Q
*CELL fd2qd1_hd
*C2_R1_C1 4.505e-03 9.100e-03 4.505e-03 
*LOADS
*RC U12:D0 8.199e-05
*RC i2c_master/U853:B 8.199e-05
*END

*R_NET w_i2c_data_in_ready 4.585e-02
*DRIVER i2c_master/clk_r_REG30_S5:Q
*CELL fd3qd1_hd
*C2_R1_C1 2.293e-02 2.066e-02 2.293e-02 
*LOADS
*RC i2c_master/U853:A 9.473e-04
*RC U22:A 9.473e-04
*RC U25:A 9.473e-04
*RC U27:B 9.473e-04
*RC U252:A 9.473e-04
*RC U248:AN 9.473e-04
*RC U227:A 9.473e-04
*RC U146:A 9.473e-04
*END

*R_NET r_i2c_data_in_last 8.780e-03
*DRIVER r_i2c_data_in_last_reg:Q
*CELL fd2qd1_hd
*C2_R1_C1 4.390e-03 9.100e-03 4.390e-03 
*LOADS
*RC U15:D0 7.990e-05
*RC i2c_master/U246:B 7.990e-05
*END

*R_NET w_i2c_data_out_valid 1.557e-02
*DRIVER i2c_master/clk_r_REG33_S8:Q
*CELL fd3qd1_hd
*C2_R1_C1 7.785e-03 9.460e-03 7.785e-03 
*LOADS
*RC i2c_master/U634:A 1.473e-04
*RC i2c_master/U98:B 1.473e-04
*RC U247:B 1.473e-04
*END

*R_NET r_i2c_data_out_ready 9.490e-03
*DRIVER r_i2c_data_out_ready_reg:Q
*CELL fd2qd1_hd
*C2_R1_C1 4.745e-03 9.100e-03 4.745e-03 
*LOADS
*RC U13:D0 8.636e-05
*RC i2c_master/U536:A 8.636e-05
*END

*R_NET r_lstate_0_ 9.470e-03
*DRIVER r_lstate_reg_0_:Q
*CELL fd2qd1_hd
*C2_R1_C1 4.735e-03 9.100e-03 4.735e-03 
*LOADS
*RC U17:D0 8.618e-05
*RC U154:A 8.618e-05
*END

*R_NET N183 4.920e-03
*DRIVER add_x_2/U14:Y
*CELL ivd1_hd
*C2_R1_C1 2.460e-03 7.370e-03 2.460e-03 
*LOADS
*RC U49:AN 3.626e-05
*END

*R_NET N184 4.920e-03
*DRIVER add_x_2/U9:S
*CELL had1_hd
*C2_R1_C1 2.460e-03 7.370e-03 2.460e-03 
*LOADS
*RC U51:AN 3.626e-05
*END

*R_NET N185 4.920e-03
*DRIVER add_x_2/U8:S
*CELL had1_hd
*C2_R1_C1 2.460e-03 7.370e-03 2.460e-03 
*LOADS
*RC U53:AN 3.626e-05
*END

*R_NET N186 4.920e-03
*DRIVER add_x_2/U7:S
*CELL had1_hd
*C2_R1_C1 2.460e-03 7.370e-03 2.460e-03 
*LOADS
*RC U55:AN 3.626e-05
*END

*R_NET N187 4.920e-03
*DRIVER add_x_2/U6:S
*CELL had1_hd
*C2_R1_C1 2.460e-03 7.370e-03 2.460e-03 
*LOADS
*RC U58:AN 3.626e-05
*END

*R_NET N188 9.770e-03
*DRIVER add_x_2/U5:S
*CELL had1_hd
*C2_R1_C1 4.885e-03 9.100e-03 4.885e-03 
*LOADS
*RC U60:AN 8.891e-05
*RC U74:B 8.891e-05
*END

*R_NET N189 4.720e-03
*DRIVER add_x_2/U4:S
*CELL had1_hd
*C2_R1_C1 2.360e-03 7.370e-03 2.360e-03 
*LOADS
*RC U62:B 3.479e-05
*END

*R_NET N190 4.720e-03
*DRIVER add_x_2/U3:S
*CELL had1_hd
*C2_R1_C1 2.360e-03 7.370e-03 2.360e-03 
*LOADS
*RC U65:B 3.479e-05
*END

*R_NET N191 4.620e-03
*DRIVER add_x_2/U2:S
*CELL had1_hd
*C2_R1_C1 2.310e-03 7.370e-03 2.310e-03 
*LOADS
*RC U68:A 3.405e-05
*END

*R_NET N192 5.220e-03
*DRIVER add_x_2/U13:Y
*CELL xo2d1_hd
*C2_R1_C1 2.610e-03 7.370e-03 2.610e-03 
*LOADS
*RC U42:A 3.847e-05
*END

*R_NET N279 4.680e-03
*DRIVER U288:Y
*CELL ad2d1_hd
*C2_R1_C1 2.340e-03 7.370e-03 2.340e-03 
*LOADS
*RC r_i2c_reg_addr_reg_0_:D 3.449e-05
*END

*R_NET N280 4.680e-03
*DRIVER U286:Y
*CELL nr2bd1_hd
*C2_R1_C1 2.340e-03 7.370e-03 2.340e-03 
*LOADS
*RC r_i2c_reg_addr_reg_1_:D 3.449e-05
*END

*R_NET N281 4.680e-03
*DRIVER U285:Y
*CELL nr2bd1_hd
*C2_R1_C1 2.340e-03 7.370e-03 2.340e-03 
*LOADS
*RC r_i2c_reg_addr_reg_2_:D 3.449e-05
*END

*R_NET N282 4.680e-03
*DRIVER U284:Y
*CELL nr2bd1_hd
*C2_R1_C1 2.340e-03 7.370e-03 2.340e-03 
*LOADS
*RC r_i2c_reg_addr_reg_3_:D 3.449e-05
*END

*R_NET N283 4.680e-03
*DRIVER U283:Y
*CELL nr2bd1_hd
*C2_R1_C1 2.340e-03 7.370e-03 2.340e-03 
*LOADS
*RC r_i2c_reg_addr_reg_4_:D 3.449e-05
*END

*R_NET N284 4.680e-03
*DRIVER U282:Y
*CELL nr2bd1_hd
*C2_R1_C1 2.340e-03 7.370e-03 2.340e-03 
*LOADS
*RC r_i2c_reg_addr_reg_5_:D 3.449e-05
*END

*R_NET N285 4.680e-03
*DRIVER U281:Y
*CELL nr2bd1_hd
*C2_R1_C1 2.340e-03 7.370e-03 2.340e-03 
*LOADS
*RC r_i2c_reg_addr_reg_6_:D 3.449e-05
*END

*R_NET N286 4.680e-03
*DRIVER U276:Y
*CELL scg6d1_hd
*C2_R1_C1 2.340e-03 7.370e-03 2.340e-03 
*LOADS
*RC r_i2c_reg_addr_reg_7_:D 3.449e-05
*END

*R_NET N287 4.680e-03
*DRIVER U275:Y
*CELL scg6d1_hd
*C2_R1_C1 2.340e-03 7.370e-03 2.340e-03 
*LOADS
*RC r_i2c_reg_data_in_reg_0_:D 3.449e-05
*END

*R_NET N288 4.680e-03
*DRIVER U274:Y
*CELL scg6d1_hd
*C2_R1_C1 2.340e-03 7.370e-03 2.340e-03 
*LOADS
*RC r_i2c_reg_data_in_reg_1_:D 3.449e-05
*END

*R_NET N289 4.680e-03
*DRIVER U273:Y
*CELL nr2bd1_hd
*C2_R1_C1 2.340e-03 7.370e-03 2.340e-03 
*LOADS
*RC r_i2c_reg_data_in_reg_2_:D 3.449e-05
*END

*R_NET N290 4.680e-03
*DRIVER U272:Y
*CELL nr2bd1_hd
*C2_R1_C1 2.340e-03 7.370e-03 2.340e-03 
*LOADS
*RC r_i2c_reg_data_in_reg_3_:D 3.449e-05
*END

*R_NET N291 4.680e-03
*DRIVER U271:Y
*CELL nr2bd1_hd
*C2_R1_C1 2.340e-03 7.370e-03 2.340e-03 
*LOADS
*RC r_i2c_reg_data_in_reg_4_:D 3.449e-05
*END

*R_NET N292 4.680e-03
*DRIVER U270:Y
*CELL scg6d1_hd
*C2_R1_C1 2.340e-03 7.370e-03 2.340e-03 
*LOADS
*RC r_i2c_reg_data_in_reg_5_:D 3.449e-05
*END

*R_NET N293 4.680e-03
*DRIVER U269:Y
*CELL scg6d1_hd
*C2_R1_C1 2.340e-03 7.370e-03 2.340e-03 
*LOADS
*RC r_i2c_reg_data_in_reg_6_:D 3.449e-05
*END

*R_NET N294 4.680e-03
*DRIVER U268:Y
*CELL nr2bd1_hd
*C2_R1_C1 2.340e-03 7.370e-03 2.340e-03 
*LOADS
*RC r_i2c_reg_data_in_reg_7_:D 3.449e-05
*END

*R_NET N307 4.680e-03
*DRIVER U244:Y
*CELL oa211d1_hd
*C2_R1_C1 2.340e-03 7.370e-03 2.340e-03 
*LOADS
*RC r_pstate_reg_0_:D 3.449e-05
*END

*R_NET N308 4.680e-03
*DRIVER U230:Y
*CELL oa211d1_hd
*C2_R1_C1 2.340e-03 7.370e-03 2.340e-03 
*LOADS
*RC r_pstate_reg_1_:D 3.449e-05
*END

*R_NET N309 4.680e-03
*DRIVER U227:Y
*CELL oa211d1_hd
*C2_R1_C1 2.340e-03 7.370e-03 2.340e-03 
*LOADS
*RC r_pstate_reg_2_:D 3.449e-05
*END

*R_NET N310 4.810e-03
*DRIVER U224:Y
*CELL oa211d1_hd
*C2_R1_C1 2.405e-03 7.370e-03 2.405e-03 
*LOADS
*RC U222:C 3.545e-05
*END

*R_NET N311 4.680e-03
*DRIVER U222:Y
*CELL scg18d1_hd
*C2_R1_C1 2.340e-03 7.370e-03 2.340e-03 
*LOADS
*RC r_pstate_reg_4_:D 3.449e-05
*END

*R_NET N312 4.680e-03
*DRIVER U221:Y
*CELL oa211d1_hd
*C2_R1_C1 2.340e-03 7.370e-03 2.340e-03 
*LOADS
*RC r_pstate_reg_5_:D 3.449e-05
*END

*R_NET N315 6.030e-03
*DRIVER U1:Y
*CELL nr2bd1_hd
*C2_R1_C1 3.015e-03 7.370e-03 3.015e-03 
*LOADS
*RC clk_gate_r_i2c_reg_addr_reg_0__0/latch:EN 4.444e-05
*END

*R_NET N324 9.490e-03
*DRIVER r_lstate_reg_1_:Q
*CELL fd2qd1_hd
*C2_R1_C1 4.745e-03 9.100e-03 4.745e-03 
*LOADS
*RC U18:D0 8.636e-05
*RC U233:A 8.636e-05
*END

*R_NET n40 4.680e-03
*DRIVER U206:Y
*CELL scg22d1_hd
*C2_R1_C1 2.340e-03 7.370e-03 2.340e-03 
*LOADS
*RC r_i2c_cmd_valid_reg:D 3.449e-05
*END

*R_NET n46 4.680e-03
*DRIVER U169:Y
*CELL scg2d1_hd
*C2_R1_C1 2.340e-03 7.370e-03 2.340e-03 
*LOADS
*RC o_MPR121_INIT_SET_reg:D 3.449e-05
*END

*R_NET n47 4.680e-03
*DRIVER U195:Y
*CELL oa22ad1_hd
*C2_R1_C1 2.340e-03 7.370e-03 2.340e-03 
*LOADS
*RC o_MPR121_BUSY_reg:D 3.449e-05
*END

*R_NET n78 4.211e-02
*DRIVER U277:Y
*CELL nr2d1_hd
*C2_R1_C1 2.105e-02 2.066e-02 2.105e-02 
*LOADS
*RC U17:D1 8.700e-04
*RC U34:AN 8.700e-04
*RC U276:C 8.700e-04
*RC U275:C 8.700e-04
*RC U274:C 8.700e-04
*RC U270:C 8.700e-04
*RC U269:C 8.700e-04
*RC U223:B 8.700e-04
*END

*R_NET n80 5.335e-02
*DRIVER U20:Y
*CELL nr4d2_hd
*C2_R1_C1 2.668e-02 2.090e-02 2.668e-02 
*LOADS
*RC U50:C 1.115e-03
*RC U52:C 1.115e-03
*RC U54:C 1.115e-03
*RC U56:C 1.115e-03
*RC U59:C 1.115e-03
*RC U61:C 1.115e-03
*RC U74:C 1.115e-03
*RC U277:A 1.115e-03
*RC U245:A 1.115e-03
*END

*R_NET n81 5.394e-02
*DRIVER U251:Y
*CELL ivd1_hd
*C2_R1_C1 2.697e-02 2.090e-02 2.697e-02 
*LOADS
*RC U50:D 1.128e-03
*RC U52:D 1.128e-03
*RC U54:D 1.128e-03
*RC U56:D 1.128e-03
*RC U59:D 1.128e-03
*RC U61:D 1.128e-03
*RC U74:A 1.128e-03
*RC U245:B 1.128e-03
*RC U220:B 1.128e-03
*END

*R_NET n82 5.610e-03
*DRIVER U150:Y
*CELL clknd2d1_hd
*C2_R1_C1 2.805e-03 7.370e-03 2.805e-03 
*LOADS
*RC U224:D 4.135e-05
*END

*R_NET n83 2.662e-02
*DRIVER U279:Y
*CELL ivd1_hd
*C2_R1_C1 1.331e-02 1.549e-02 1.331e-02 
*LOADS
*RC U64:E 4.123e-04
*RC U67:E 4.123e-04
*RC U70:A 4.123e-04
*RC U73:A 4.123e-04
*RC U144:A 4.123e-04
*END

*R_NET n84 2.194e-02
*DRIVER U262:Y
*CELL ivd1_hd
*C2_R1_C1 1.097e-02 1.094e-02 1.097e-02 
*LOADS
*RC U71:B 2.400e-04
*RC U73:B 2.400e-04
*RC U261:B 2.400e-04
*RC U142:B 2.400e-04
*END

*R_NET n85 6.199e-02
*DRIVER U225:Y
*CELL ivd1_hd
*C2_R1_C1 3.100e-02 2.163e-02 3.100e-02 
*LOADS
*RC U43:D 1.341e-03
*RC U48:AN 1.341e-03
*RC U50:B 1.341e-03
*RC U52:B 1.341e-03
*RC U54:B 1.341e-03
*RC U56:B 1.341e-03
*RC U59:B 1.341e-03
*RC U61:B 1.341e-03
*RC U69:A 1.341e-03
*RC U71:A 1.341e-03
*RC U73:C 1.341e-03
*RC U150:B 1.341e-03
*END

*R_NET n86 5.190e-03
*DRIVER U233:Y
*CELL ivd1_hd
*C2_R1_C1 2.595e-03 7.370e-03 2.595e-03 
*LOADS
*RC U154:B 3.825e-05
*END

*R_NET n87 6.126e-02
*DRIVER U287:Y
*CELL ivd1_hd
*C2_R1_C1 3.063e-02 2.139e-02 3.063e-02 
*LOADS
*RC U286:B 1.311e-03
*RC U285:B 1.311e-03
*RC U284:B 1.311e-03
*RC U283:B 1.311e-03
*RC U282:B 1.311e-03
*RC U281:B 1.311e-03
*RC U273:B 1.311e-03
*RC U272:B 1.311e-03
*RC U271:B 1.311e-03
*RC U268:B 1.311e-03
*RC U230:A 1.311e-03
*END

*R_NET n88 9.570e-03
*DRIVER U220:Y
*CELL nr2d1_hd
*C2_R1_C1 4.785e-03 9.100e-03 4.785e-03 
*LOADS
*RC U1:B 8.709e-05
*RC U21:A 8.709e-05
*END

*R_NET n89 8.630e-03
*DRIVER U197:Y
*CELL ivd1_hd
*C2_R1_C1 4.315e-03 9.100e-03 4.315e-03 
*LOADS
*RC U21:B 7.853e-05
*RC U169:D 7.853e-05
*END

*R_NET n92 5.550e-03
*DRIVER U193:Y
*CELL ivd1_hd
*C2_R1_C1 2.775e-03 7.370e-03 2.775e-03 
*LOADS
*RC U24:C 4.090e-05
*END

*R_NET n93 1.627e-02
*DRIVER U228:Y
*CELL ivd1_hd
*C2_R1_C1 8.135e-03 9.460e-03 8.135e-03 
*LOADS
*RC U38:C 1.539e-04
*RC U227:D 1.539e-04
*RC U184:B 1.539e-04
*END

*R_NET n96 1.616e-02
*DRIVER U153:Y
*CELL clknd2d1_hd
*C2_R1_C1 8.080e-03 9.460e-03 8.080e-03 
*LOADS
*RC U27:C 1.529e-04
*RC U252:C 1.529e-04
*RC U193:A 1.529e-04
*END

*R_NET n97 9.330e-03
*DRIVER U184:Y
*CELL clknd2d1_hd
*C2_R1_C1 4.665e-03 9.100e-03 4.665e-03 
*LOADS
*RC U12:D1 8.490e-05
*RC U22:B 8.490e-05
*END

*R_NET n99 1.734e-02
*DRIVER U249:Y
*CELL oa21d1_hd
*C2_R1_C1 8.670e-03 9.460e-03 8.670e-03 
*LOADS
*RC U25:B 1.640e-04
*RC U248:B 1.640e-04
*RC U227:B 1.640e-04
*END

*R_NET n100 5.600e-03
*DRIVER U252:Y
*CELL ao21d1_hd
*C2_R1_C1 2.800e-03 7.370e-03 2.800e-03 
*LOADS
*RC U244:C 4.127e-05
*END

*R_NET n101 1.115e-02
*DRIVER U246:Y
*CELL ivd1_hd
*C2_R1_C1 5.575e-03 9.100e-03 5.575e-03 
*LOADS
*RC clk_gate_o_MPR121_DATA_OUT_reg_7__0/latch:EN 1.015e-04
*RC U245:D 1.015e-04
*END

*R_NET n102 9.630e-03
*DRIVER U247:Y
*CELL nd3bd1_hd
*C2_R1_C1 4.815e-03 9.100e-03 4.815e-03 
*LOADS
*RC U246:A 8.763e-05
*RC U152:B 8.763e-05
*END

*R_NET n103 1.606e-02
*DRIVER U234:Y
*CELL nr2d1_hd
*C2_R1_C1 8.030e-03 9.460e-03 8.030e-03 
*LOADS
*RC U231:A 1.519e-04
*RC U195:A 1.519e-04
*RC U169:A 1.519e-04
*END

*R_NET n104 5.930e-03
*DRIVER U196:Y
*CELL oa211d1_hd
*C2_R1_C1 2.965e-03 7.370e-03 2.965e-03 
*LOADS
*RC U195:B 4.370e-05
*END

*R_NET n105 5.514e-02
*DRIVER U19:Y
*CELL nr2ad1_hd
*C2_R1_C1 2.757e-02 2.163e-02 2.757e-02 
*LOADS
*RC U18:D1 1.193e-03
*RC U288:B 1.193e-03
*RC U287:A 1.193e-03
*RC U276:A 1.193e-03
*RC U275:A 1.193e-03
*RC U274:A 1.193e-03
*RC U270:A 1.193e-03
*RC U269:A 1.193e-03
*RC U222:A 1.193e-03
*RC U220:A 1.193e-03
*RC U195:C 1.193e-03
*RC U158:A 1.193e-03
*END

*R_NET n106 9.900e-03
*DRIVER U243:Y
*CELL or2d1_hd
*C2_R1_C1 4.950e-03 9.100e-03 4.950e-03 
*LOADS
*RC U230:B 9.009e-05
*RC U195:D 9.009e-05
*END

*R_NET n107 2.530e-02
*DRIVER U147:Y
*CELL clknd2d1_hd
*C2_R1_C1 1.265e-02 1.094e-02 1.265e-02 
*LOADS
*RC U19:B 2.768e-04
*RC U279:A 2.768e-04
*RC U217:A 2.768e-04
*RC U196:B 2.768e-04
*END

*R_NET n108 1.082e-02
*DRIVER U151:Y
*CELL clknd2d1_hd
*C2_R1_C1 5.410e-03 9.100e-03 5.410e-03 
*LOADS
*RC U244:B 9.846e-05
*RC U196:C 9.846e-05
*END

*R_NET n109 4.780e-03
*DRIVER U198:Y
*CELL ivd1_hd
*C2_R1_C1 2.390e-03 7.370e-03 2.390e-03 
*LOADS
*RC U169:B 3.523e-05
*END

*R_NET n110 9.410e-03
*DRIVER U217:Y
*CELL nr2d1_hd
*C2_R1_C1 4.705e-03 9.100e-03 4.705e-03 
*LOADS
*RC U22:D 8.563e-05
*RC U197:A 8.563e-05
*END

*R_NET n111 9.630e-03
*DRIVER U154:Y
*CELL clknd2d1_hd
*C2_R1_C1 4.815e-03 9.100e-03 4.815e-03 
*LOADS
*RC U198:A 8.763e-05
*RC U149:B 8.763e-05
*END

*R_NET n112 9.620e-03
*DRIVER U256:Y
*CELL oa21d1_hd
*C2_R1_C1 4.810e-03 9.100e-03 4.810e-03 
*LOADS
*RC U153:A 8.754e-05
*RC U152:A 8.754e-05
*END

*R_NET n114 2.613e-02
*DRIVER U264:Y
*CELL ivd1_hd
*C2_R1_C1 1.307e-02 1.549e-02 1.307e-02 
*LOADS
*RC U35:A 4.048e-04
*RC U36:B 4.048e-04
*RC U256:B 4.048e-04
*RC U232:A 4.048e-04
*RC U141:B 4.048e-04
*END

*R_NET n115 2.220e-02
*DRIVER U250:Y
*CELL ivd1_hd
*C2_R1_C1 1.110e-02 1.094e-02 1.110e-02 
*LOADS
*RC r_i2c_write_multiple_reg:D 2.429e-04
*RC U35:B 2.429e-04
*RC U249:B 2.429e-04
*RC U232:B 2.429e-04
*END

*R_NET n116 3.052e-02
*DRIVER U257:Y
*CELL ivd1_hd
*C2_R1_C1 1.526e-02 1.674e-02 1.526e-02 
*LOADS
*RC U16:D1 5.109e-04
*RC U24:A 5.109e-04
*RC U30:C 5.109e-04
*RC U36:C 5.109e-04
*RC U256:C 5.109e-04
*RC U148:A 5.109e-04
*END

*R_NET n117 4.930e-03
*DRIVER U218:Y
*CELL nr2d1_hd
*C2_R1_C1 2.465e-03 7.370e-03 2.465e-03 
*LOADS
*RC U22:C 3.633e-05
*END

*R_NET n118 2.610e-02
*DRIVER U260:Y
*CELL nr2d1_hd
*C2_R1_C1 1.305e-02 1.549e-02 1.305e-02 
*LOADS
*RC U16:S 4.043e-04
*RC r_i2c_write_reg:D 4.043e-04
*RC U24:B 4.043e-04
*RC U259:A 4.043e-04
*RC U249:A 4.043e-04
*END

*R_NET n119 2.378e-02
*DRIVER U143:Y
*CELL clknd2d1_hd
*C2_R1_C1 1.189e-02 1.094e-02 1.189e-02 
*LOADS
*RC U19:A 2.602e-04
*RC U33:B 2.602e-04
*RC U258:C 2.602e-04
*RC U247:AN 2.602e-04
*END

*R_NET n120 2.702e-02
*DRIVER U263:Y
*CELL ivd1_hd
*C2_R1_C1 1.351e-02 1.549e-02 1.351e-02 
*LOADS
*RC U33:AN 4.185e-04
*RC U247:C 4.185e-04
*RC U242:A 4.185e-04
*RC U229:D 4.185e-04
*RC U151:A 4.185e-04
*END

*R_NET n121 1.832e-02
*DRIVER U152:Y
*CELL clknd2d1_hd
*C2_R1_C1 9.160e-03 9.460e-03 9.160e-03 
*LOADS
*RC U13:S 1.733e-04
*RC U14:S 1.733e-04
*RC U206:C 1.733e-04
*END

*R_NET n122 9.530e-03
*DRIVER U226:Y
*CELL nd2bd1_hd
*C2_R1_C1 4.765e-03 9.100e-03 4.765e-03 
*LOADS
*RC U224:C 8.672e-05
*RC U206:B 8.672e-05
*END

*R_NET n123 9.950e-03
*DRIVER U232:Y
*CELL oa21d1_hd
*C2_R1_C1 4.975e-03 9.100e-03 4.975e-03 
*LOADS
*RC U206:D 9.054e-05
*RC U157:A 9.054e-05
*END

*R_NET n127 1.587e-02
*DRIVER U219:Y
*CELL ivd1_hd
*C2_R1_C1 7.935e-03 9.460e-03 7.935e-03 
*LOADS
*RC U37:A 1.501e-04
*RC U38:A 1.501e-04
*RC U184:A 1.501e-04
*END

*R_NET n128 2.251e-02
*DRIVER U142:Y
*CELL clknd2d1_hd
*C2_R1_C1 1.125e-02 1.094e-02 1.125e-02 
*LOADS
*RC U257:A 2.463e-04
*RC U253:A 2.463e-04
*RC U218:B 2.463e-04
*RC U217:B 2.463e-04
*END

*R_NET n129 9.960e-03
*DRIVER U141:Y
*CELL clknd2d1_hd
*C2_R1_C1 4.980e-03 9.100e-03 4.980e-03 
*LOADS
*RC U263:A 9.064e-05
*RC U218:A 9.064e-05
*END

*R_NET n130 2.335e-02
*DRIVER U258:Y
*CELL ao21d1_hd
*C2_R1_C1 1.168e-02 1.094e-02 1.168e-02 
*LOADS
*RC U27:A 2.554e-04
*RC U252:B 2.554e-04
*RC U242:D 2.554e-04
*RC U219:A 2.554e-04
*END

*R_NET n131 6.000e-03
*DRIVER U158:Y
*CELL clknd2d1_hd
*C2_R1_C1 3.000e-03 7.370e-03 3.000e-03 
*LOADS
*RC U221:B 4.422e-05
*END

*R_NET n132 1.042e-02
*DRIVER U229:Y
*CELL scg22d1_hd
*C2_R1_C1 5.210e-03 9.100e-03 5.210e-03 
*LOADS
*RC U227:C 9.482e-05
*RC U221:C 9.482e-05
*END

*R_NET n133 1.066e-02
*DRIVER U259:Y
*CELL ivd1_hd
*C2_R1_C1 5.330e-03 9.100e-03 5.330e-03 
*LOADS
*RC U258:A 9.701e-05
*RC U221:D 9.701e-05
*END

*R_NET n134 1.647e-02
*DRIVER U145:Y
*CELL clknd2d1_hd
*C2_R1_C1 8.235e-03 9.460e-03 8.235e-03 
*LOADS
*RC U258:B 1.558e-04
*RC U250:A 1.558e-04
*RC U222:D 1.558e-04
*END

*R_NET n135 5.740e-03
*DRIVER U223:Y
*CELL nr2d1_hd
*C2_R1_C1 2.870e-03 7.370e-03 2.870e-03 
*LOADS
*RC U222:E 4.230e-05
*END

*R_NET n136 5.182e-02
*DRIVER U253:Y
*CELL nr2d1_hd
*C2_R1_C1 2.591e-02 2.139e-02 2.591e-02 
*LOADS
*RC U3:A 1.109e-03
*RC U4:A 1.109e-03
*RC U5:A 1.109e-03
*RC U6:A 1.109e-03
*RC U7:A 1.109e-03
*RC U8:A 1.109e-03
*RC U9:D 1.109e-03
*RC U16:D0 1.109e-03
*RC U228:A 1.109e-03
*RC U223:A 1.109e-03
*RC U146:B 1.109e-03
*END

*R_NET n137 3.767e-02
*DRIVER U148:Y
*CELL clknd2d1_hd
*C2_R1_C1 1.884e-02 1.715e-02 1.884e-02 
*LOADS
*RC U10:B 6.460e-04
*RC U11:B 6.460e-04
*RC U66:D 6.460e-04
*RC U63:D 6.460e-04
*RC U234:B 6.460e-04
*RC U225:A 6.460e-04
*RC U224:A 6.460e-04
*END

*R_NET n138 1.679e-02
*DRIVER U149:Y
*CELL clknd2d1_hd
*C2_R1_C1 8.395e-03 9.460e-03 8.395e-03 
*LOADS
*RC U32:A 1.588e-04
*RC U231:B 1.588e-04
*RC U224:B 1.588e-04
*END

*R_NET n139 5.216e-02
*DRIVER U236:Y
*CELL nr2d1_hd
*C2_R1_C1 2.608e-02 2.090e-02 2.608e-02 
*LOADS
*RC U30:A 1.090e-03
*RC U50:A 1.090e-03
*RC U52:A 1.090e-03
*RC U54:A 1.090e-03
*RC U56:A 1.090e-03
*RC U59:A 1.090e-03
*RC U61:A 1.090e-03
*RC U234:A 1.090e-03
*RC U150:A 1.090e-03
*END

*R_NET n140 9.680e-03
*DRIVER U254:Y
*CELL nd3d1_hd
*C2_R1_C1 4.840e-03 9.100e-03 4.840e-03 
*LOADS
*RC U253:B 8.809e-05
*RC U226:AN 8.809e-05
*END

*R_NET n141 2.257e-02
*DRIVER U261:Y
*CELL nr2d1_hd
*C2_R1_C1 1.128e-02 1.094e-02 1.128e-02 
*LOADS
*RC U29:B 2.469e-04
*RC U249:C 2.469e-04
*RC U226:B 2.469e-04
*RC U151:B 2.469e-04
*END

*R_NET n142 5.600e-03
*DRIVER U242:Y
*CELL ao211d1_hd
*C2_R1_C1 2.800e-03 7.370e-03 2.800e-03 
*LOADS
*RC U230:C 4.127e-05
*END

*R_NET n143 5.610e-03
*DRIVER U231:Y
*CELL ao21d1_hd
*C2_R1_C1 2.805e-03 7.370e-03 2.805e-03 
*LOADS
*RC U230:D 4.135e-05
*END

*R_NET n144 5.640e-03
*DRIVER U157:Y
*CELL clknd2d1_hd
*C2_R1_C1 2.820e-03 7.370e-03 2.820e-03 
*LOADS
*RC U231:C 4.157e-05
*END

*R_NET n145 9.600e-03
*DRIVER U146:Y
*CELL clknd2d1_hd
*C2_R1_C1 4.800e-03 9.100e-03 4.800e-03 
*LOADS
*RC U157:B 8.736e-05
*RC U153:B 8.736e-05
*END

*R_NET n146 3.333e-02
*DRIVER U278:Y
*CELL nr2d1_hd